#------------------------------------------------------------------------------
#$Date: 2016-03-24 14:32:51 +0200 (Thu, 24 Mar 2016) $
#$Revision: 179667 $
#$URL: file:///home/coder/svn-repositories/cod/cif/4/51/20/4512072.cif $
#------------------------------------------------------------------------------
#
# This file is available in the Crystallography Open Database (COD),
# http://www.crystallography.net/
#
# All data on this site have been placed in the public domain by the
# contributors.
#
data_4512072
loop_
_publ_author_name
'\/Oien, Sigurd'
'Wragg, David'
'Reinsch, Helge'
'Svelle, Stian'
'Bordiga, Silvia'
'Lamberti, Carlo'
'Lillerud, Karl Petter'
_publ_section_title
;
 Detailed Structure Analysis of Atomic Positions and Defects in Zirconium
 Metal--Organic Frameworks
;
_journal_issue                   11
_journal_name_full               'Crystal Growth &amp; Design'
_journal_page_first              5370
_journal_paper_doi               10.1021/cg501386j
_journal_volume                  14
_journal_year                    2014
_chemical_formula_moiety         'n[(C34.94 H17.47 O32 Zr6), 29.74(O)]'
_chemical_formula_sum            'C34.94 H17.47 O61.74 Zr6'
_chemical_formula_weight         1972.51
_chemical_name_common            UiO-66
_chemical_name_systematic
;
Zr(IV) terephthalate metal-organic framework
;
_space_group_crystal_system      cubic
_space_group_IT_number           225
_space_group_name_Hall           '-F 4 2 3'
_space_group_name_H-M_alt        'F m -3 m'
_symmetry_space_group_name_Hall  '-F 4 2 3'
_symmetry_space_group_name_H-M   'F m -3 m'
_atom_sites_solution_hydrogens   geom
_audit_creation_date             2014-04-30
_audit_creation_method
;
Olex2 1.2
(compiled 2014.03.20 svn.r2914 for OlexSys, GUI svn.r4816)
;
_cell_angle_alpha                90
_cell_angle_beta                 90
_cell_angle_gamma                90
_cell_formula_units_Z            4
_cell_length_a                   20.7465(2)
_cell_length_b                   20.7465(2)
_cell_length_c                   20.7465(2)
_cell_measurement_reflns_used    6384
_cell_measurement_temperature    100(2)
_cell_measurement_theta_max      33.645
_cell_measurement_theta_min      2.970
_cell_volume                     8929.65(15)
_computing_cell_refinement       'APEX2 v2013.6--2 (Bruker AXS)'
_computing_data_collection       'APEX2 v2013.6--2 (Bruker AXS)'
_computing_data_reduction        'SAINT v8.34A (Bruker, 2013)'
_computing_molecular_graphics    'Diamond v3.2i (Brandenburg, 2012)'
_computing_publication_material  'Olex2 (Dolomanov et al., 2009)'
_computing_structure_refinement  'XL (Sheldrick, 2008)'
_computing_structure_solution    'APEX2 v2013.6--2 (Bruker AXS)'
_diffrn_ambient_temperature      100.0
_diffrn_detector                 'CCD area detector'
_diffrn_detector_area_resol_mean 13.6986
_diffrn_detector_type            'Marmosaic 225'
_diffrn_measured_fraction_theta_full 0.987
_diffrn_measured_fraction_theta_max 0.989
_diffrn_measurement_device       '\k-geometry diffractometer'
_diffrn_measurement_device_type  'MD2 microdiffractometer with MK3 mini-kappa'
_diffrn_measurement_method       '\f scans'
_diffrn_radiation_collimation    'Rh-coated Si focusing mirrors'
_diffrn_radiation_monochromator  'Silicon 111'
_diffrn_radiation_probe          x-ray
_diffrn_radiation_type           synchrotron
_diffrn_radiation_wavelength     0.760
_diffrn_reflns_av_R_equivalents  0.0370
_diffrn_reflns_av_unetI/netI     0.0168
_diffrn_reflns_Laue_measured_fraction_full 0.987
_diffrn_reflns_Laue_measured_fraction_max 0.989
_diffrn_reflns_limit_h_max       29
_diffrn_reflns_limit_h_min       -28
_diffrn_reflns_limit_k_max       22
_diffrn_reflns_limit_k_min       -27
_diffrn_reflns_limit_l_max       27
_diffrn_reflns_limit_l_min       -29
_diffrn_reflns_number            12999
_diffrn_reflns_point_group_measured_fraction_full 0.987
_diffrn_reflns_point_group_measured_fraction_max 0.989
_diffrn_reflns_theta_full        27.129
_diffrn_reflns_theta_max         32.828
_diffrn_reflns_theta_min         2.970
_diffrn_source                   synchrotron
_diffrn_source_type              'Wiggler, Station I911-3, MAX II, MAXLAB'
_exptl_absorpt_coefficient_mu    0.928
_exptl_absorpt_correction_T_max  0.7467
_exptl_absorpt_correction_T_min  0.6050
_exptl_absorpt_correction_type   multi-scan
_exptl_absorpt_process_details
;
SADABS-2012/1 (Bruker,2012) was used for absorption correction.
wR2(int) was 0.0651 before and 0.0499 after correction.
The Ratio of minimum to maximum transmission is 0.8102.
The \l/2 correction factor is 0.0015.
;
_exptl_crystal_colour            'clear colourless'
_exptl_crystal_colour_lustre     clear
_exptl_crystal_colour_primary    colourless
_exptl_crystal_density_diffrn    1.443
_exptl_crystal_description       octahedral
_exptl_crystal_F_000             3779
_exptl_crystal_size_max          0.01
_exptl_crystal_size_mid          0.01
_exptl_crystal_size_min          0.01
_refine_diff_density_max         0.395
_refine_diff_density_min         -0.370
_refine_diff_density_rms         0.078
_refine_ls_extinction_method     none
_refine_ls_goodness_of_fit_ref   1.113
_refine_ls_hydrogen_treatment    constr
_refine_ls_matrix_type           full
_refine_ls_number_parameters     53
_refine_ls_number_reflns         739
_refine_ls_number_restraints     0
_refine_ls_restrained_S_all      1.113
_refine_ls_R_factor_all          0.0244
_refine_ls_R_factor_gt           0.0233
_refine_ls_shift/su_max          0.000
_refine_ls_shift/su_mean         0.000
_refine_ls_structure_factor_coef Fsqd
_refine_ls_weighting_details
'w=1/[\s^2^(Fo^2^)+(0.0456P)^2^+20.2522P] where P=(Fo^2^+2Fc^2^)/3'
_refine_ls_weighting_scheme      calc
_refine_ls_wR_factor_gt          0.0710
_refine_ls_wR_factor_ref         0.0714
_reflns_Friedel_coverage         0.000
_reflns_number_gt                701
_reflns_number_total             739
_reflns_threshold_expression     'I > 2\s(I)'
_cod_data_source_file            cg501386j_si_001.cif
_cod_data_source_block           66cpub_a
_cod_depositor_comments
'Adding full bibliography for 4512072--4512074.cif.'
_cod_original_cell_volume        8929.7(3)
_cod_database_code               4512072
#BEGIN Tags that were not found in dictionaries:
_shelx_space_group_comment
;
The symmetry employed for this shelxl refinement is uniquely defined
by the following loop, which should always be used as a source of
symmetry information in preference to the above space-group names.
They are only intended as comments.
;
_olex2_refinement_description
;
1. Fixed Uiso
 At 1.2 times of:
  All C(H) groups
2. Others
 Sof(O1A)=0.16667*(1-FVAR(2))
 Sof(O1B)=0.16667*FVAR(2)
 Sof(O2B)=0.5*(1-FVAR(3))
 Sof(C2)=Sof(C1)=0.25*FVAR(3)
 Sof(O2A)=Sof(C3)=Sof(H3)=0.5*FVAR(3)
3.a Aromatic/amide H refined with riding coordinates:
 C3(H3)
;
_shelx_res_file
;
TITL 66Cpub in Fm-3m
CELL 0.76 20.7465 20.7465 20.7465 90 90 90
ZERR 4 0.0002 0.0002 0.0002 0 0 0
LATT 4
SYMM -X,-Y,+Z
SYMM -X,+Y,-Z
SYMM +X,-Y,-Z
SYMM +Z,+X,+Y
SYMM +Z,-X,-Y
SYMM -Z,-X,+Y
SYMM -Z,+X,-Y
SYMM +Y,+Z,+X
SYMM -Y,+Z,-X
SYMM +Y,-Z,-X
SYMM -Y,-Z,+X
SYMM +Y,+X,-Z
SYMM -Y,-X,-Z
SYMM +Y,-X,+Z
SYMM -Y,+X,+Z
SYMM +X,+Z,-Y
SYMM -X,+Z,+Y
SYMM -X,-Z,-Y
SYMM +X,-Z,+Y
SYMM +Z,+Y,-X
SYMM +Z,-Y,+X
SYMM -Z,+Y,+X
SYMM -Z,-Y,-X
 
SFAC C H O Zr
DISP C 0.004 0.002 13.247
DISP H -0 0 0.627
DISP O 0.014 0.007 38.676
DISP Zr -1.967 0.657 2986.787
UNIT 135.56544 67.78272 242.21952 24
 
L.S. 50
PLAN  20
TEMP -173.15
REM Solution 1 R1 0.126 Rweak 0.010, Alpha = 0.0511 in Fm-3m
BOND
BOND $H
LIST 4
MORE -1
CONF
fmap 2
acta
SHEL 999 0.7
REM <HKL>D:/frames/guest/SOE_Lund_1747full/work/66Cpub_a.hkl</HKL>
 
WGHT    0.045600   20.252201
FVAR       0.13774   0.53542   0.72693
ZR1   4    0.000000    0.000000    0.119748    10.12500    0.01006    0.01006 =
         0.00498    0.00000    0.00000    0.00000
PART 2
O1B   3   -0.067367   -0.067367    0.067367    20.16667    0.01516    0.01516 =
         0.01516    0.00203    0.00203   -0.00203
PART 0
PART 1
O2A   3    0.093954    0.000000    0.170228    30.50000    0.01470    0.03634 =
         0.00952    0.00000   -0.00520    0.00000
 
PART 0
O3    3   -0.151092   -0.151092    0.151092     0.09259    0.25736    0.25736 =
         0.25736    0.04831    0.04831   -0.04831
O4    3   -0.210849   -0.210849    0.210849    10.16667    0.77697    0.77697 =
         0.77697    0.28323    0.28323   -0.28323
 
PART 2
O2B   3    0.082528    0.000000    0.188245   -30.50000    0.05199    0.02321 =
         0.02949    0.00000   -0.02968    0.00000
PART 0
PART 1
C2    1    0.202791    0.000000    0.202791    30.25000    0.01430    0.05448 =
         0.01430    0.00000   -0.01092    0.00000
C3    1    0.267124    0.000000    0.185342    30.50000    0.01617    0.13088 =
         0.01511    0.00000   -0.00783    0.00000
AFIX  43
H3    2    0.278907    0.000000    0.141094    30.50000   -1.20000
AFIX   0
O1A   3   -0.050478   -0.050478    0.050478   -20.16667    0.00557    0.00557 =
         0.00557    0.00026    0.00026   -0.00026
C1    1    0.151795    0.000000    0.151795    30.25000    0.01197    0.02998 =
         0.01197    0.00000   -0.00799    0.00000
 
PART 0
O6    3    0.396496    0.103504    0.103504     0.13303    0.71996    0.71996 =
         0.71996    0.38990   -0.38990   -0.38990
O5    3    0.373414    0.000000    0.000000     0.22727    0.57711    1.44807 =
         1.44807    0.00000    0.00000    0.00000
HKLF 4
 
REM  66Cpub in Fm-3m
REM R1 =  0.0233 for     701 Fo > 4sig(Fo)  and  0.0244 for all     739 data
REM     53 parameters refined using      0 restraints
 
END  
     
WGHT      0.0433     23.4769 

REM Highest difference peak  0.395,  deepest hole -0.370,  1-sigma level  0.078
Q1    1  -0.2500 -0.2500  0.1704  10.25000  0.05    0.37
Q2    1   0.1678 -0.0723  0.1678  10.50000  0.05    0.34
Q3    1   0.3318  0.0000  0.0000  10.12500  0.05    0.33
Q4    1  -0.1820 -0.1820  0.1820  10.16667  0.05    0.31
Q5    1   0.0288  0.0000  0.1391  10.50000  0.05    0.30
Q6    1  -0.0922 -0.0922  0.0922  10.16667  0.05    0.28
Q7    1   0.1816  0.0000  0.1816  10.25000  0.05    0.27
Q8    1   0.1927  0.0000  0.2306  10.50000  0.05    0.26
Q9    1  -0.2319 -0.1251  0.1251  10.50000  0.05    0.25
Q10   1   0.0260  0.0260  0.1030  10.50000  0.05    0.25
Q11   1  -0.0639 -0.0381  0.0639  10.50000  0.05    0.24
Q12   1  -0.1655 -0.2003  0.1655  10.50000  0.05    0.24
Q13   1  -0.0312  0.0000  0.0964  10.50000  0.05    0.24
Q14   1   0.1100  0.0385  0.2143  11.00000  0.05    0.23
Q15   1   0.2775  0.0400  0.1308  11.00000  0.05    0.23
Q16   1   0.3800  0.0510  0.0510  10.50000  0.05    0.22
Q17   1  -0.1681 -0.1151  0.1681  10.50000  0.05    0.21
Q18   1  -0.0411 -0.0411  0.0411  10.16667  0.05    0.21
Q19   1   0.4142  0.0000 -0.0725  10.50000  0.05    0.20
Q20   1   0.1904 -0.0411  0.1904  10.50000  0.05    0.19

REM The information below was added by Olex2.
REM
REM R1 = 0.0233 for 701 Fo > 4sig(Fo) and 0.0244 for all 13152 data
REM n/a parameters refined using n/a restraints
REM Highest difference peak 0.40, deepest hole -0.37
REM Mean Shift 0, Max Shift 0.000.

REM +++ Tabular Listing of Refinement Information +++
REM R1_all = 0.0244
REM R1_gt = 0.0233
REM wR_ref = 0.0714
REM GOOF = 1.113
REM Shift_max = 0.000
REM Shift_mean = 0
REM Reflections_all = 13152
REM Reflections_gt = 701
REM Parameters = n/a
REM Hole = -0.37
REM Peak = 0.40
REM Flack = n/a

;
#END Tags that were not found in dictionaries
loop_
_space_group_symop_operation_xyz
'x, y, z'
'-x, -y, z'
'-x, y, -z'
'x, -y, -z'
'z, x, y'
'z, -x, -y'
'-z, -x, y'
'-z, x, -y'
'y, z, x'
'-y, z, -x'
'y, -z, -x'
'-y, -z, x'
'y, x, -z'
'-y, -x, -z'
'y, -x, z'
'-y, x, z'
'x, z, -y'
'-x, z, y'
'-x, -z, -y'
'x, -z, y'
'z, y, -x'
'z, -y, x'
'-z, y, x'
'-z, -y, -x'
'x, y+1/2, z+1/2'
'-x, -y+1/2, z+1/2'
'-x, y+1/2, -z+1/2'
'x, -y+1/2, -z+1/2'
'z, x+1/2, y+1/2'
'z, -x+1/2, -y+1/2'
'-z, -x+1/2, y+1/2'
'-z, x+1/2, -y+1/2'
'y, z+1/2, x+1/2'
'-y, z+1/2, -x+1/2'
'y, -z+1/2, -x+1/2'
'-y, -z+1/2, x+1/2'
'y, x+1/2, -z+1/2'
'-y, -x+1/2, -z+1/2'
'y, -x+1/2, z+1/2'
'-y, x+1/2, z+1/2'
'x, z+1/2, -y+1/2'
'-x, z+1/2, y+1/2'
'-x, -z+1/2, -y+1/2'
'x, -z+1/2, y+1/2'
'z, y+1/2, -x+1/2'
'z, -y+1/2, x+1/2'
'-z, y+1/2, x+1/2'
'-z, -y+1/2, -x+1/2'
'x+1/2, y, z+1/2'
'-x+1/2, -y, z+1/2'
'-x+1/2, y, -z+1/2'
'x+1/2, -y, -z+1/2'
'z+1/2, x, y+1/2'
'z+1/2, -x, -y+1/2'
'-z+1/2, -x, y+1/2'
'-z+1/2, x, -y+1/2'
'y+1/2, z, x+1/2'
'-y+1/2, z, -x+1/2'
'y+1/2, -z, -x+1/2'
'-y+1/2, -z, x+1/2'
'y+1/2, x, -z+1/2'
'-y+1/2, -x, -z+1/2'
'y+1/2, -x, z+1/2'
'-y+1/2, x, z+1/2'
'x+1/2, z, -y+1/2'
'-x+1/2, z, y+1/2'
'-x+1/2, -z, -y+1/2'
'x+1/2, -z, y+1/2'
'z+1/2, y, -x+1/2'
'z+1/2, -y, x+1/2'
'-z+1/2, y, x+1/2'
'-z+1/2, -y, -x+1/2'
'x+1/2, y+1/2, z'
'-x+1/2, -y+1/2, z'
'-x+1/2, y+1/2, -z'
'x+1/2, -y+1/2, -z'
'z+1/2, x+1/2, y'
'z+1/2, -x+1/2, -y'
'-z+1/2, -x+1/2, y'
'-z+1/2, x+1/2, -y'
'y+1/2, z+1/2, x'
'-y+1/2, z+1/2, -x'
'y+1/2, -z+1/2, -x'
'-y+1/2, -z+1/2, x'
'y+1/2, x+1/2, -z'
'-y+1/2, -x+1/2, -z'
'y+1/2, -x+1/2, z'
'-y+1/2, x+1/2, z'
'x+1/2, z+1/2, -y'
'-x+1/2, z+1/2, y'
'-x+1/2, -z+1/2, -y'
'x+1/2, -z+1/2, y'
'z+1/2, y+1/2, -x'
'z+1/2, -y+1/2, x'
'-z+1/2, y+1/2, x'
'-z+1/2, -y+1/2, -x'
'-x, -y, -z'
'x, y, -z'
'x, -y, z'
'-x, y, z'
'-z, -x, -y'
'-z, x, y'
'z, x, -y'
'z, -x, y'
'-y, -z, -x'
'y, -z, x'
'-y, z, x'
'y, z, -x'
'-y, -x, z'
'y, x, z'
'-y, x, -z'
'y, -x, -z'
'-x, -z, y'
'x, -z, -y'
'x, z, y'
'-x, z, -y'
'-z, -y, x'
'-z, y, -x'
'z, -y, -x'
'z, y, x'
'-x, -y+1/2, -z+1/2'
'x, y+1/2, -z+1/2'
'x, -y+1/2, z+1/2'
'-x, y+1/2, z+1/2'
'-z, -x+1/2, -y+1/2'
'-z, x+1/2, y+1/2'
'z, x+1/2, -y+1/2'
'z, -x+1/2, y+1/2'
'-y, -z+1/2, -x+1/2'
'y, -z+1/2, x+1/2'
'-y, z+1/2, x+1/2'
'y, z+1/2, -x+1/2'
'-y, -x+1/2, z+1/2'
'y, x+1/2, z+1/2'
'-y, x+1/2, -z+1/2'
'y, -x+1/2, -z+1/2'
'-x, -z+1/2, y+1/2'
'x, -z+1/2, -y+1/2'
'x, z+1/2, y+1/2'
'-x, z+1/2, -y+1/2'
'-z, -y+1/2, x+1/2'
'-z, y+1/2, -x+1/2'
'z, -y+1/2, -x+1/2'
'z, y+1/2, x+1/2'
'-x+1/2, -y, -z+1/2'
'x+1/2, y, -z+1/2'
'x+1/2, -y, z+1/2'
'-x+1/2, y, z+1/2'
'-z+1/2, -x, -y+1/2'
'-z+1/2, x, y+1/2'
'z+1/2, x, -y+1/2'
'z+1/2, -x, y+1/2'
'-y+1/2, -z, -x+1/2'
'y+1/2, -z, x+1/2'
'-y+1/2, z, x+1/2'
'y+1/2, z, -x+1/2'
'-y+1/2, -x, z+1/2'
'y+1/2, x, z+1/2'
'-y+1/2, x, -z+1/2'
'y+1/2, -x, -z+1/2'
'-x+1/2, -z, y+1/2'
'x+1/2, -z, -y+1/2'
'x+1/2, z, y+1/2'
'-x+1/2, z, -y+1/2'
'-z+1/2, -y, x+1/2'
'-z+1/2, y, -x+1/2'
'z+1/2, -y, -x+1/2'
'z+1/2, y, x+1/2'
'-x+1/2, -y+1/2, -z'
'x+1/2, y+1/2, -z'
'x+1/2, -y+1/2, z'
'-x+1/2, y+1/2, z'
'-z+1/2, -x+1/2, -y'
'-z+1/2, x+1/2, y'
'z+1/2, x+1/2, -y'
'z+1/2, -x+1/2, y'
'-y+1/2, -z+1/2, -x'
'y+1/2, -z+1/2, x'
'-y+1/2, z+1/2, x'
'y+1/2, z+1/2, -x'
'-y+1/2, -x+1/2, z'
'y+1/2, x+1/2, z'
'-y+1/2, x+1/2, -z'
'y+1/2, -x+1/2, -z'
'-x+1/2, -z+1/2, y'
'x+1/2, -z+1/2, -y'
'x+1/2, z+1/2, y'
'-x+1/2, z+1/2, -y'
'-z+1/2, -y+1/2, x'
'-z+1/2, y+1/2, -x'
'z+1/2, -y+1/2, -x'
'z+1/2, y+1/2, x'
loop_
_atom_site_label
_atom_site_type_symbol
_atom_site_fract_x
_atom_site_fract_y
_atom_site_fract_z
_atom_site_U_iso_or_equiv
_atom_site_adp_type
_atom_site_occupancy
_atom_site_site_symmetry_order
_atom_site_calc_flag
_atom_site_refinement_flags_posn
_atom_site_refinement_flags_adp
_atom_site_refinement_flags_occupancy
_atom_site_disorder_group
Zr1 Zr 0.0000 0.0000 0.11975(2) 0.00837(13) Uani 1 8 d S T P .
O1B O -0.0674(5) -0.0674(5) 0.0674(5) 0.015(2) Uani 0.54(4) 6 d S T P 2
O2A O 0.0940(2) 0.0000 0.17023(19) 0.0202(7) Uani 0.727(7) 2 d S T P 1
O3 O -0.1511(7) -0.1511(7) 0.1511(7) 0.26(2) Uani 0.56(4) 6 d S T P .
O4 O -0.2108(7) -0.2108(7) 0.2108(7) 0.78(4) Uani 1 6 d S T P .
O2B O 0.0825(8) 0.0000 0.1882(6) 0.035(3) Uani 0.273(7) 2 d S T P 2
C2 C 0.20279(12) 0.0000 0.20279(12) 0.0277(10) Uani 0.727(7) 4 d S T P 1
C3 C 0.26712(15) 0.0000 0.18534(15) 0.0541(14) Uani 0.727(7) 2 d S T P 1
H3 H 0.2789 0.0000 0.1411 0.065 Uiso 0.727(7) 2 calc RS T P 1
O1A O -0.0505(5) -0.0505(5) 0.0505(5) 0.006(2) Uani 0.46(4) 6 d S T P 1
C1 C 0.15179(11) 0.0000 0.15179(11) 0.0180(8) Uani 0.727(7) 4 d S T P 1
O6 O 0.396(3) 0.104(3) 0.104(3) 0.72(9) Uani 0.80(11) 6 d S T P .
O5 O 0.373(2) 0.0000 0.0000 1.16(13) Uani 1.8(3) 8 d S T P .
loop_
_atom_site_aniso_label
_atom_site_aniso_U_11
_atom_site_aniso_U_22
_atom_site_aniso_U_33
_atom_site_aniso_U_23
_atom_site_aniso_U_13
_atom_site_aniso_U_12
Zr1 0.01006(14) 0.01006(14) 0.00498(16) 0.000 0.000 0.000
O1B 0.015(2) 0.015(2) 0.015(2) 0.002(2) 0.002(2) -0.002(2)
O2A 0.0147(11) 0.0363(15) 0.0095(16) 0.000 -0.0052(11) 0.000
O3 0.26(2) 0.26(2) 0.26(2) 0.048(12) 0.048(12) -0.048(12)
O4 0.78(4) 0.78(4) 0.78(4) 0.28(3) 0.28(3) -0.28(3)
O2B 0.052(9) 0.023(4) 0.029(7) 0.000 -0.030(5) 0.000
C2 0.0143(11) 0.054(3) 0.0143(11) 0.000 -0.0109(13) 0.000
C3 0.0162(14) 0.131(4) 0.0151(14) 0.000 -0.0078(11) 0.000
O1A 0.006(2) 0.006(2) 0.006(2) 0.000(2) 0.000(2) 0.000(2)
C1 0.0120(10) 0.0300(19) 0.0120(10) 0.000 -0.0080(11) 0.000
O6 0.72(9) 0.72(9) 0.72(9) 0.39(9) -0.39(9) -0.39(9)
O5 0.58(9) 1.45(17) 1.45(17) 0.000 0.000 0.000
loop_
_atom_type_symbol
_atom_type_description
_atom_type_scat_dispersion_real
_atom_type_scat_dispersion_imag
_atom_type_scat_source
C C 0.0040 0.0020 'International Tables Vol C Tables 4.2.6.8 and 6.1.1.4'
H H 0.0000 0.0000 'International Tables Vol C Tables 4.2.6.8 and 6.1.1.4'
O O 0.0140 0.0070 'International Tables Vol C Tables 4.2.6.8 and 6.1.1.4'
Zr Zr -1.9670 0.6570 'International Tables Vol C Tables 4.2.6.8 and 6.1.1.4'
loop_
_geom_angle_atom_site_label_1
_geom_angle_atom_site_label_2
_geom_angle_atom_site_label_3
_geom_angle
_geom_angle_site_symmetry_1
_geom_angle_site_symmetry_3
O2A Zr1 O2A 123.50(17) 110 109
O2A Zr1 O2A 123.50(17) 2 .
O2A Zr1 O2A 77.05(7) 109 .
O2A Zr1 O2A 77.05(7) 109 2
O2A Zr1 O2A 77.05(7) 110 .
O2A Zr1 O2A 77.05(7) 110 2
O2B Zr1 O2B 65.9(4) . 109
O2B Zr1 O2B 65.9(4) 110 2
O2B Zr1 O2B 100.6(8) 110 109
O2B Zr1 O2B 100.6(8) . 2
O2B Zr1 O2B 65.9(4) . 110
O2B Zr1 O2B 65.9(4) 109 2
O1A Zr1 O2A 83.3(4) . 2
O1A Zr1 O2A 83.3(4) 100 109
O1A Zr1 O2A 83.3(4) 2 110
O1A Zr1 O2A 140.95(9) 100 110
O1A Zr1 O2A 83.3(4) 2 .
O1A Zr1 O2A 140.95(9) 100 2
O1A Zr1 O2A 140.95(9) . 110
O1A Zr1 O2A 140.95(9) 2 109
O1A Zr1 O2A 83.3(4) . 109
O1A Zr1 O2A 140.95(9) 99 109
O1A Zr1 O2A 83.3(4) 99 2
O1A Zr1 O2A 83.3(4) 99 110
O1A Zr1 O2A 140.95(9) 2 2
O1A Zr1 O2A 83.3(4) 100 .
O1A Zr1 O2A 140.95(9) 99 .
O1A Zr1 O2A 140.95(9) . .
O1A Zr1 O1A 61.0(6) 100 .
O1A Zr1 O1A 61.0(6) 99 2
O1A Zr1 O1A 91.7(10) 100 99
O1A Zr1 O1A 61.0(6) 99 .
O1A Zr1 O1A 91.7(10) 2 .
O1A Zr1 O1A 61.0(6) 100 2
Zr1 O1B Zr1 102.3(5) . 101
Zr1 O1B Zr1 102.3(5) . 105
Zr1 O1B Zr1 102.3(5) 105 101
C1 O2A Zr1 134.1(3) . .
C3 C2 C3 120.3(3) . 22
C3 C2 C1 119.82(17) . .
C3 C2 C1 119.83(17) 22 .
C2 C3 C3 119.83(17) . 166
C2 C3 H3 120.1 . .
C3 C3 H3 120.1 166 .
Zr1 O1A Zr1 116.7(3) 105 101
Zr1 O1A Zr1 116.7(3) . 101
Zr1 O1A Zr1 116.7(3) . 105
O2A C1 O2A 125.4(5) . 22
O2A C1 C2 117.3(2) 22 .
O2A C1 C2 117.3(2) . .
loop_
_geom_bond_atom_site_label_1
_geom_bond_atom_site_label_2
_geom_bond_distance
_geom_bond_site_symmetry_2
Zr1 O2A 2.213(5) 110
Zr1 O2A 2.213(5) 2
Zr1 O2A 2.213(5) 109
Zr1 O2A 2.213(5) .
Zr1 O2B 2.225(15) .
Zr1 O2B 2.225(15) 109
Zr1 O2B 2.225(15) 110
Zr1 O2B 2.225(15) 2
Zr1 O1A 2.064(3) 100
Zr1 O1A 2.064(3) .
Zr1 O1A 2.064(3) 99
Zr1 O1A 2.064(3) 2
O1B Zr1 2.256(8) 101
O1B Zr1 2.256(8) 105
O2A C1 1.259(4) .
C2 C3 1.383(4) 22
C2 C3 1.383(4) .
C2 C1 1.496(5) .
C3 C3 1.395(6) 166
C3 H3 0.9500 .
O1A Zr1 2.064(3) 105
O1A Zr1 2.064(3) 101
C1 O2A 1.260(4) 22
loop_
_geom_torsion_atom_site_label_1
_geom_torsion_atom_site_label_2
_geom_torsion_atom_site_label_3
_geom_torsion_atom_site_label_4
_geom_torsion
_geom_torsion_site_symmetry_1
_geom_torsion_site_symmetry_4
Zr1 O2A C1 O2A 0.000(0) . 22
Zr1 O2A C1 C2 180.000(0) . .
C3 C2 C3 C3 0.000(0) 22 166
C3 C2 C1 O2A 0.000(0) 22 .
C3 C2 C1 O2A 0.000(0) . 22
C3 C2 C1 O2A 180.000(0) 22 22
C3 C2 C1 O2A 180.000(0) . .
C1 C2 C3 C3 180.000(0) . 166
loop_
_refln_index_h
_refln_index_k
_refln_index_l
_refln_F_squared_meas
_refln_F_squared_sigma
-2 -2 0 2177.38 105.19
0 -2 2 2395.06 105.19
0 2 -2 2192.98 105.19
2 0 -2 2512.55 105.29
-2 -2 2 1503.15 65.99
2 2 -2 1406.86 65.99
2 2 2 1447.46 65.89
-3 -1 -1 286.97 13.9
-3 1 1 313.87 14.1
-1 -3 -1 280.27 14
-1 -3 1 281.97 14.1
-1 1 -3 305.47 13.8
1 -1 -3 310.07 14
1 -1 3 283.17 13.8
1 1 -3 312.07 14
3 -1 -1 321.57 14.1
3 -1 1 321.17 14
3 1 -1 303.37 14.1
3 1 1 304.57 13.9
-3 -3 -1 794.72 36.1
-3 -3 1 769.82 36.2
-3 -1 -3 753.72 35.8
-3 -1 3 758.02 36.2
-3 1 3 903.91 36.3
-1 -3 3 737.83 36.2
-1 3 -3 782.62 36.1
1 -3 3 771.42 36.1
1 3 -3 743.13 36.1
3 -1 -3 795.62 36.3
3 1 -3 822.12 36.3
3 1 3 839.02 35.9
3 3 -1 764.42 36.2
3 3 1 824.22 36.2
-3 -3 -3 1068.99 49
-3 -3 3 1042.8 49.2
3 3 -3 1090.69 49.3
-4 0 -2 1253.17 57.39
-4 0 2 1236.28 57.59
-2 -4 0 1157.78 57.59
0 2 -4 1273.87 57.49
2 4 0 1235.48 57.59
4 0 -2 1317.87 57.69
4 0 2 1239.98 57.39
-4 -2 0 1297.17 57.59
-2 0 4 1280.17 57.59
0 -4 2 1264.67 57.59
0 4 -2 1233.18 57.59
2 0 -4 1234.88 57.59
4 2 0 1404.16 57.59
-4 -2 -2 573.74 24.4
-2 -4 -2 469.75 24.5
-2 -4 2 519.85 24.6
-2 -2 4 552.34 24.6
-2 2 -4 482.45 24.3
2 -2 -4 553.64 24.7
2 -2 4 521.55 24.3
2 2 -4 527.05 24.6
4 -2 -2 615.74 24.8
4 2 2 500.95 24.4
-4 -4 0 1455.55 68.69
-4 0 4 1496.65 68.79
0 -4 4 1447.76 68.69
0 4 -4 1590.04 68.69
4 0 -4 1592.24 68.89
4 4 0 1415.96 68.69
-4 -4 2 3719.73 193.48
-4 -2 4 4134.89 193.58
-2 -4 4 4179.78 193.48
2 -4 4 4308.27 193.38
2 4 -4 4220.28 193.48
4 -2 -4 4705.53 193.68
4 2 -4 4263.87 193.58
4 4 -2 4613.94 193.58
-5 -1 -1 1834.52 83.59
-5 -1 1 1744.73 83.69
-5 1 1 1893.41 83.79
-1 -5 -1 1782.92 83.69
-1 -5 1 1836.42 83.69
-1 -1 -5 1843.72 83.49
-1 -1 5 1718.53 83.59
-1 1 -5 2086.99 83.39
1 -1 -5 1830.72 83.59
1 -1 5 1853.21 83.39
1 1 -5 1893.81 83.59
1 5 -1 1762.22 83.69
5 -1 -1 1820.02 83.69
5 -1 1 1871.61 83.59
5 1 -1 1819.42 83.69
-5 -1 -3 977.2 43.7
5 1 -3 1008.7 44.1
-5 1 3 1030.3 44.2
-3 -5 -1 920.71 44
-5 -3 1 967.4 44
-3 -1 5 1024 44.1
5 3 1 973.5 43.9
1 -3 5 1006.4 43.8
1 3 -5 921.01 43.9
3 5 -1 897.11 44
3 -1 -5 984.9 44.1
5 -1 3 1030.8 43.7
-5 -1 3 1065.89 44.2
5 -1 -3 993.9 44.1
-5 -3 -1 825.82 43.9
-3 -5 1 957 44.1
-1 -3 5 933.21 43.9
-3 1 5 984.2 44.1
1 -5 3 961.2 44
5 1 3 1028.9 43.7
3 -1 5 781.02 43.5
3 1 -5 986.4 44.1
5 3 -1 1034.5 44.1
-1 3 -5 766.92 43.7
-5 -3 -3 1322.67 56.29
-5 -3 3 1261.77 56.59
-3 -5 -3 1205.08 56.49
-3 -5 3 1276.67 56.59
-3 -3 5 1294.47 56.59
3 -3 5 1156.08 56.19
3 3 -5 1201.48 56.49
3 5 -3 1239.78 56.59
5 -3 -3 1288.67 56.69
5 3 -3 1169.38 56.59
5 3 3 1181.68 56.29
-5 -5 -1 1652.23 76.49
-5 -5 1 1670.33 76.59
-5 -1 -5 1696.93 75.89
-5 -1 5 1707.93 76.59
-5 1 5 1697.83 76.59
-1 -5 5 1621.24 76.49
-1 5 -5 1623.64 76.39
1 -5 5 1711.13 76.39
1 5 -5 1666.23 76.49
5 -1 -5 1785.92 76.69
5 1 -5 1668.63 76.59
5 5 -1 1629.64 76.49
5 5 1 1658.93 76.49
-5 -5 3 4330.07 202.78
-5 -3 5 4496.45 202.78
-3 -5 -5 4499.55 202.48
-3 -5 5 4594.34 202.78
3 -5 5 4510.45 202.48
3 5 -5 4601.14 202.78
5 3 -5 4216.28 202.68
5 5 -3 4207.98 202.68
5 5 3 4754.32 202.68
-6 0 -2 49.1 3.1
-6 0 2 53.39 3.7
-2 -6 0 42.7 3.3
0 -2 -6 42.5 3
0 -2 6 45.5 3.1
0 2 -6 35.9 2.9
2 6 0 46.6 3.4
6 0 -2 46.4 3.5
6 0 2 44.8 3
6 -2 0 43.8 3.3
6 2 0 52.39 3.5
-2 0 6 42.3 3.2
0 -6 2 51.69 3.7
0 6 -2 53.89 3.6
-2 0 -6 45.1 2.5
-6 -2 0 46.7 3.3
2 -2 -6 122.99 6.9
-2 -2 6 125.69 6.9
2 2 -6 116.79 6.8
6 -2 2 121.79 6.7
6 2 -2 115.69 6.9
6 2 2 123.09 6.6
2 6 -2 115.79 7
6 -2 -2 120.59 7.1
-6 -2 -2 120.39 6.6
-6 -2 2 118.39 7
-2 -6 -2 119.79 6.9
-2 -6 2 117.59 7
2 -2 6 126.59 6.4
6 0 4 249.48 11.3
6 0 -4 249.58 11.9
4 6 0 235.88 11.9
-6 0 -4 231.98 11.3
-6 0 4 245.28 12.1
-4 -6 0 233.78 11.9
0 -4 6 237.68 11.7
0 4 -6 241.48 11.7
0 6 -4 251.27 11.9
4 0 -6 250.27 12
6 4 0 227.28 11.8
0 -6 4 245.18 11.9
-4 0 6 249.78 12
-6 -4 0 235.58 11.8
-4 -2 6 940.71 45.1
2 4 -6 979.5 45
4 6 -2 994.4 45.1
-6 -4 2 987.3 45.1
-2 -6 4 971.7 45.1
6 -2 4 959.8 44.6
6 2 -4 979 45.1
6 4 2 991.3 44.9
2 -4 6 1111.69 44.8
-6 -2 -4 995.3 44.6
4 -2 -6 970.2 45.1
-4 -6 -2 940.11 45
-6 -2 4 994.7 45.1
-2 -4 6 915.71 45
4 6 2 948.71 45
-4 -2 -6 1013.9 44.5
-2 4 -6 973.4 44.8
6 -2 -4 1010.2 45.2
2 -6 4 979 44.9
2 6 -4 946.71 45
-4 -6 2 907.71 45
4 -2 6 1037.7 44.4
4 2 -6 946.81 45
6 4 -2 947.31 45.1
6 2 4 991.6 44.6
-6 -4 -4 3994.5 181.28
-6 -4 4 3896.51 181.58
-4 -6 -4 4068.49 181.38
-4 -6 4 3923.21 181.58
-4 -4 6 4005.1 181.58
4 -4 -6 3993.8 181.58
4 -4 6 4385.66 181.18
4 4 -6 3993.5 181.48
4 6 -4 3957.6 181.58
6 -4 -4 4087.89 181.68
6 4 -4 4012.8 181.58
6 4 4 3647.93 181.18
-6 -6 0 479.35 22.5
-6 0 6 482.85 22.6
0 -6 6 471.15 22.4
0 6 -6 457.35 22.4
6 0 -6 497.95 22.6
6 6 0 471.15 22.5
-6 -6 -2 59.39 4.4
-6 -6 2 74.19 4.9
-6 -2 -6 69.99 3.6
-6 -2 6 85.89 5.4
-2 -6 6 60.39 4.5
-2 6 -6 54.69 4.2
2 -6 6 60.79 4.4
2 6 -6 60.29 4.5
6 -2 -6 72.39 5
6 -2 6 71.79 3.6
6 2 -6 58.59 4.8
6 6 -2 54.79 4.6
6 6 2 61.69 4.6
-6 -6 -4 5512.85 252.07
-6 -6 4 5387.06 252.27
-6 -4 6 5710.63 252.37
4 -6 6 5696.63 251.97
4 6 -6 5431.46 252.17
6 4 -6 5625.74 252.27
6 6 -4 5451.25 252.27
6 6 4 5661.23 252.07
-6 -6 -6 6057.49 270.77
6 6 -6 5886.81 271.07
-7 -1 -1 3961.4 187.28
-7 1 -1 4311.27 187.28
-7 1 1 4164.48 187.38
-1 -7 -1 3943.21 187.38
-1 -1 7 4108.69 187.28
1 -1 -7 4088.19 187.28
1 1 -7 4188.78 187.28
1 7 -1 4260.17 187.48
7 1 -1 4157.38 187.38
7 1 1 4119.19 187.28
-7 -1 -3 4.1 1.3
3 -1 -7 4.1 1.8
-7 1 3 5.1 2.1
-3 -7 -1 5.8 1.9
7 -3 -1 3.9 1.9
-3 1 -7 4.6 0.7
7 1 -3 2.6 2
7 3 1 3.8 1.7
1 -3 7 4 1.3
1 3 -7 4.3 1.5
3 7 -1 6.3 2
-3 -1 7 3 1.9
-1 -7 3 4.5 1.9
7 -1 3 3.6 1.3
-7 -3 1 5.1 1.8
-1 3 -7 3.5 1.4
1 -3 -7 2.6 1.7
-7 -1 3 5.3 2.1
3 -1 7 4.3 0.8
3 1 -7 2.2 1.7
7 -1 -3 6.7 2.1
7 -3 1 1.9 1.8
7 3 -1 4 1.8
-3 1 7 3.6 2.1
-3 -7 1 4.5 1.9
1 -7 3 3.3 1.7
1 7 -3 3.8 1.9
-1 -3 7 5.6 1.6
3 7 1 5.1 2
-3 -1 -7 4.1 0.8
7 1 3 3.9 1.3
-7 -3 -1 6 1.8
-7 -3 -3 166.78 8.8
3 3 -7 174.08 9.1
-3 3 -7 185.08 8.5
-3 -7 3 169.08 9.2
3 -3 -7 189.38 9.3
3 -3 7 193.38 8.6
-7 -3 3 174.08 9.3
-3 -7 -3 166.08 9
3 7 -3 181.58 9.1
7 -3 -3 178.58 9.3
7 -3 3 176.28 8.9
7 3 -3 179.48 9.2
7 3 3 181.88 8.8
3 -7 3 175.48 9.1
7 1 -5 172.68 8.9
1 -5 7 172.38 8.5
5 7 -1 160.78 8.8
-1 7 -5 166.98 8.7
-7 1 5 178.18 9.1
7 -1 5 172.38 8
-7 -5 1 158.18 8.7
-1 -7 5 167.78 8.7
1 5 -7 157.98 8.6
-7 -1 -5 156.38 8
7 5 1 167.68 8.7
5 -1 -7 177.18 8.9
-5 -7 -1 159.18 8.7
-5 -1 7 173.28 8.9
-7 -1 5 170.78 9
-5 -7 1 170.88 8.9
1 7 -5 169.78 8.8
7 -1 -5 157.48 8.9
5 1 -7 169.68 8.8
7 5 -1 174.18 8.8
-1 -5 7 167.58 8.6
-5 1 7 160.38 8.9
7 1 5 182.68 8.1
5 7 1 166.38 8.8
1 -7 5 169.18 8.7
-1 5 -7 165.08 8.5
-7 -5 -1 175.18 8.7
5 -3 -7 594.54 28.4
7 3 -5 597.14 28.3
5 7 -3 565.64 28.3
-7 -5 3 614.44 28.4
-5 -7 -3 558.94 28.1
-7 -3 -5 586.04 27.8
7 5 3 602.14 28.1
3 -5 7 664.83 28
-5 -3 7 587.34 28.3
-3 -7 5 624.34 28.3
7 -3 -5 579.54 28.4
-7 -5 -3 620.14 28.1
-3 -5 7 586.64 28.3
-5 -3 -7 647.64 27.7
-5 -7 3 600.94 28.4
-3 -7 -5 581.94 28.1
7 3 5 627.54 27.8
3 -7 5 592.84 28.1
3 7 -5 599.04 28.3
-7 -3 5 607.94 28.4
5 -3 7 611.14 27.6
5 3 -7 622.84 28.3
7 5 -3 607.24 28.4
5 7 3 595.44 28.2
-7 -5 -5 4557.94 203.58
-7 -5 5 4557.94 203.98
-5 -7 -5 4726.03 203.78
-5 -7 5 4254.97 203.88
-5 -5 -7 4146.08 203.48
-5 -5 7 4592.14 203.98
5 -7 5 4762.22 203.78
5 -5 -7 4303.67 203.98
5 5 -7 4600.34 203.98
5 7 -5 4378.76 203.88
7 -5 -5 4387.16 204.08
7 5 -5 4583.14 203.98
7 5 5 4515.75 203.58
-7 -7 -1 6113.19 264.97
-7 -1 7 5470.15 264.97
-7 1 7 5970 265.07
-1 -7 7 5672.13 264.87
-1 7 -7 6041.6 264.87
1 7 -7 5722.83 264.87
7 -1 -7 5827.82 265.07
7 1 -7 5926.71 265.07
7 7 -1 5845.12 264.97
7 7 1 5811.22 264.87
-7 -7 -3 628.84 29.8
-7 -3 -7 653.83 29.2
-7 -3 7 611.34 30
-3 -7 7 619.34 29.9
3 -7 7 642.44 29.7
3 7 -7 631.74 29.9
7 -3 -7 645.84 30.1
7 -3 7 651.73 29.1
7 -3 7 660.13 29.2
7 3 -7 643.94 30
7 7 -3 603.24 29.9
7 7 3 642.24 29.8
-7 -7 -5 25.3 2.7
-7 -7 5 24.8 3.3
-7 -5 -7 27.8 2.4
-7 -5 7 23 3.2
-5 -7 -7 22.8 2.6
-5 -7 7 26.6 3.1
5 -7 7 27.4 2.6
5 7 -7 25.6 3.2
7 -5 -7 26.5 3.4
7 -5 7 28.6 2.3
7 5 -7 24 3
7 7 -5 19.3 3.1
-7 -7 -7 2037 94.79
-7 -7 7 2053.39 95.19
7 -7 7 2135.19 94.79
7 7 -7 2085.09 95.19
-8 0 0 6686.63 308.47
0 -8 0 6840.12 308.57
0 0 -8 6872.91 308.27
-8 0 -2 570.34 26.3
-8 0 2 547.45 26.5
-2 -8 0 542.65 26.5
0 -2 -8 587.04 26.3
0 -2 8 584.64 26.2
0 2 -8 568.34 26.2
8 0 -2 577.54 26.6
8 0 2 567.14 26.3
2 0 -8 556.04 26.3
8 -2 0 663.43 26.6
8 2 0 524.15 26.4
0 -8 2 520.25 26.5
-2 0 8 553.74 26.4
-8 -2 0 543.75 26.4
-2 0 -8 573.04 25.9
-2 -2 -8 859.61 39.8
-2 -2 8 880.21 40.1
-2 2 -8 886.01 39.7
2 -8 2 867.01 40.2
2 -2 -8 898.21 40.2
-2 -8 2 870.01 40.3
8 2 2 873.81 40
2 -2 8 888.61 39.7
8 2 -2 819.32 40.2
8 -2 2 878.71 40
2 2 -8 847.32 40.1
2 8 -2 903.41 40.3
8 -2 -2 862.21 40.3
-8 -2 -2 904.31 40
-8 -2 2 838.72 40.2
-2 -8 -2 832.52 40.2
4 8 0 4.6 2.3
8 0 4 2.4 1.3
-8 0 4 0.4 2
-4 -8 0 -0.5 2.1
0 -4 8 1.9 1.6
0 4 -8 1 1.6
8 0 -4 0.5 2.1
-8 0 -4 3.2 1.4
-8 -4 0 -0.8 1.8
8 -4 0 0.7 2
8 4 0 0.2 1.9
0 8 -4 3.5 2.1
4 0 -8 -1.8 1.9
-4 0 8 0.6 2.2
0 -8 4 2.6 2
-4 -2 8 17.3 2.7
4 -2 -8 21.6 2.9
-2 -8 4 15.4 2.7
8 2 -4 18.7 2.8
-8 2 4 17.5 2.7
8 -4 -2 14.2 2.8
2 -4 8 26.1 2.3
2 4 -8 21.5 2.6
4 8 -2 20.9 3
8 4 2 26.2 2.6
8 -2 4 21.6 2.1
-8 -2 -4 18.3 2
-8 -4 2 17.5 2.7
-4 -8 -2 23 2.8
2 8 -4 21 2.8
8 -4 2 19.3 2.5
8 4 -2 21.4 2.8
8 -2 -4 20.8 2.8
8 2 4 19.7 2
4 -2 8 26.5 1.5
-2 -4 8 21.7 2.5
-8 -4 -2 23.4 2.5
-2 -8 -4 26.6 2.8
4 2 -8 22.6 2.8
-4 -8 2 18.8 2.8
2 -4 -8 17 2.6
-8 -2 4 15.5 2.7
-2 4 -8 21.4 2.1
2 -8 4 22.4 2.6
-4 -4 8 753.12 35.4
4 -4 -8 821.12 35.5
-8 -4 -4 788.22 35
4 4 -8 728.13 35.3
-4 -8 -4 618.14 35.1
-4 -8 4 746.03 35.4
4 8 -4 722.33 35.4
4 -4 8 795.72 34.8
8 -4 -4 737.03 35.5
8 4 -4 746.03 35.4
8 4 4 805.42 35.1
4 -8 4 753.32 35.2
-8 -4 4 770.62 35.4
8 0 -6 4938.51 231.38
6 0 -8 5181.38 231.38
6 8 0 5177.68 231.38
-8 -6 0 5112.19 231.28
-6 0 8 5079.79 231.38
0 -8 6 5037.9 231.18
0 8 -6 4938.21 231.18
-8 0 6 5124.89 231.38
-6 -8 0 5002.2 231.28
0 6 -8 5211.48 231.18
8 6 0 5241.88 231.28
-6 -2 8 2655.13 124.09
-8 2 6 2687.43 124.19
-8 -2 -6 2769.22 123.49
6 8 -2 2736.33 124.09
6 -2 -8 2707.13 124.19
8 6 2 2747.93 123.99
2 -6 8 2729.63 123.79
2 6 -8 2690.13 123.99
-6 -8 -2 2895.71 124.09
8 -2 6 2758.62 123.39
-8 -6 2 2629.94 124.09
8 2 -6 2687.53 124.09
-2 -8 6 2766.02 124.09
2 -8 6 2741.13 123.99
6 2 -8 2681.23 124.09
-2 -6 8 2636.74 123.99
-2 6 -8 2805.92 123.79
2 8 -6 2591.64 123.99
-8 -6 -2 2798.12 123.99
-8 -2 6 2715.73 124.19
-6 -8 2 2665.93 124.09
6 8 2 2708.03 124.09
8 -2 -6 2752.52 124.19
8 6 -2 2756.72 124.09
8 6 4 5.2 2
-4 -8 6 0.1 2
8 4 -6 5 2.3
4 -6 8 4.3 1.6
4 6 -8 1.8 2.2
6 8 -4 2.8 2.5
6 -4 -8 4.6 2.3
-8 -4 -6 5.2 1.5
-4 -6 -8 2.9 1.6
-6 -8 -4 5.1 2.2
-8 -6 4 0.7 2.2
-6 -4 8 2.7 2.4
8 4 6 5.5 1.6
8 -4 -6 3.2 2.6
-6 -4 -8 3.8 1.3
-4 -6 8 4.3 2.2
-4 -8 -6 7.1 2.2
-6 -8 4 5.5 2.3
4 -8 6 3.6 2
4 8 -6 4 2.3
-8 -6 -4 5.1 2
6 -4 8 3.8 1.2
6 4 -8 4.9 2.4
8 6 -4 5.2 2.4
-8 -4 6 6.3 2.7
-8 -6 -6 239.38 11.9
-8 -6 6 249.18 12.5
-6 -8 -6 255.67 12.2
-6 -8 6 232.78 12.4
-6 -6 -8 240.78 11.8
-6 -6 8 229.48 12.4
6 -8 6 242.18 12.1
6 -6 -8 258.67 12.7
6 -6 8 241.18 11.7
6 6 -8 232.78 12.4
6 8 -6 228.48 12.4
8 -6 -6 235.18 12.6
8 6 -6 243.78 12.4
-8 -8 0 5702.33 265.37
-8 0 8 5743.13 265.47
0 -8 8 5987.9 265.27
0 8 -8 6019.8 265.27
8 0 -8 5882.51 265.47
8 8 0 5728.73 265.37
-8 -8 -2 4561.54 205.78
-8 -8 2 4310.37 205.78
-8 -2 8 4527.95 205.98
-2 -8 8 4700.13 205.88
-2 8 -8 4779.82 205.68
2 -8 8 4598.84 205.68
2 8 -8 4589.14 205.78
8 -2 -8 4546.15 205.98
8 2 -8 4526.25 205.88
8 8 -2 4635.94 205.88
8 8 2 4035.5 205.68
-8 -8 -4 582.04 25.9
-8 -8 4 524.75 26.1
-8 -4 -8 568.14 25.3
-8 -4 8 526.45 26.1
-4 -8 -8 538.45 25.8
-4 -8 8 523.55 26
4 -8 8 523.75 25.7
4 8 -8 535.15 26
8 -4 -8 568.54 26.3
8 -4 8 547.15 25.2
8 4 -8 562.14 26.2
8 8 -4 539.35 26.1
8 8 4 532.25 25.9
-8 -8 -6 3004.9 134.29
-8 -8 6 2770.52 134.49
-8 -6 -8 3082.89 133.99
-8 -6 8 3013.7 134.59
-6 -8 -8 2905.01 134.19
-6 -8 8 2873.81 134.49
6 -8 8 2933.21 134.09
6 8 -8 2940.51 134.49
8 -6 -8 2925.41 134.69
8 -6 8 3063.99 133.89
8 6 -8 2901.81 134.49
8 8 -6 2944.31 134.59
-8 -8 -8 4026 175.58
-8 -8 8 3693.33 175.88
8 -8 -8 3765.02 175.98
8 -8 8 3909.81 175.48
8 8 -8 3897.51 175.88
-9 -1 -1 2085.29 92.89
-9 -1 1 2015.7 92.99
-9 1 -1 2050.89 92.89
-9 1 1 2088.09 93.09
-1 -9 -1 2325.17 93.19
-1 -9 1 1884.11 92.99
-1 -1 -9 2187.88 92.69
-1 -1 9 2014.7 92.89
-1 1 -9 2056.69 92.59
1 -9 1 1865.91 92.99
1 -1 -9 2020.6 92.79
1 -1 9 2021 92.69
1 1 -9 1994.7 92.79
9 -1 -1 1997.2 92.99
9 -1 1 2056.69 92.89
9 1 -1 1974.6 92.99
9 1 1 1983.5 92.89
-9 -1 -3 43.8 3.1
9 1 -3 38.5 3.6
-9 1 3 41.7 3.6
-3 -9 -1 43.3 3.6
-9 -3 1 37.4 3.3
-1 -3 -9 44.3 3.1
3 -1 -9 47.2 3.6
-3 -1 9 44.1 3.5
9 3 1 37.7 3.2
1 -3 9 42.2 3
1 3 -9 31.2 2.9
3 9 -1 34 3.4
-1 -9 3 34.5 3.5
9 -1 3 43.9 3.2
9 -3 -1 37.7 3.4
-3 1 -9 38.5 2.4
9 1 3 43 3.1
-9 -1 3 38 3.5
9 -3 1 44.2 3.4
9 3 -1 42.5 3.5
9 -1 -3 35.5 3.6
-3 -9 1 34.3 3.6
1 9 -3 39.8 3.5
-1 -3 9 45.7 3.4
3 1 -9 31.8 3.1
-3 1 9 41.5 3.4
-1 -9 -3 40.1 3.7
1 -3 -9 51.39 3.7
-3 -1 -9 41.2 2.5
-1 3 -9 35.2 2.8
3 -1 9 41.9 2.5
1 -9 3 34.2 3.3
-9 -3 -1 41.8 3.5
3 -3 9 30.8 2.4
3 3 -9 33.6 3
9 3 -3 36.9 3.5
9 3 3 29.5 2.7
-3 -9 3 27.5 3.2
3 -3 -9 35.3 3.4
3 -9 3 34.1 3.3
9 -3 3 35.9 2.9
-3 3 -9 33.6 2.3
-3 -3 9 34.2 3.2
-3 -9 -3 33.8 3.3
-9 -3 3 37.6 3.5
3 9 -3 32.2 3.4
9 -3 -3 33.6 3.2
-9 -3 -3 32.3 2.8
9 -5 -1 1169.48 51.29
9 -1 5 1150.08 50.59
-1 -9 5 1105.09 51.19
1 5 -9 1075.69 50.99
1 -5 9 1133.89 50.89
-9 -5 1 1131.09 51.19
-5 -1 9 1055.99 51.19
-5 -9 -1 1127.79 51.19
5 -1 -9 1096.49 51.19
5 9 -1 1055.89 51.19
-9 -1 -5 1185.18 50.69
9 1 -5 1114.79 51.29
-9 1 5 1109.69 51.29
9 5 1 1143.79 51.09
1 9 -5 1054.39 51.09
1 -9 5 1067.09 51.09
-1 5 -9 1055.59 50.79
-5 -9 1 1048.9 51.19
9 -1 -5 1101.79 51.29
-5 1 9 1095.99 51.29
-9 -1 5 1194.58 51.29
9 1 5 1135.79 50.59
9 5 -1 1067.69 51.09
5 1 -9 1098.59 51.19
-1 -5 9 1122.49 50.99
9 -5 1 1158.98 51.19
-9 -5 -1 1089.99 51.09
5 9 1 1065.09 51.19
-9 -5 3 10.5 2.4
-5 -9 -3 12.1 2.5
9 -3 5 8.7 1.8
-5 -3 9 11.4 2.5
-3 -9 5 10.3 2.5
5 9 -3 6.5 2.6
9 -5 -3 10.9 2.8
3 -5 9 11.7 1.9
-9 -3 -5 10.3 1.7
5 -3 -9 13.2 2.8
9 5 3 9 2.2
9 3 -5 7.7 2.5
3 5 -9 9.2 2.3
3 9 -5 9.8 2.4
9 3 5 8.7 1.8
3 -9 5 9.2 2.3
-9 -5 -3 7.9 2.1
-9 -3 5 11.2 2.4
-5 -9 3 11.6 2.6
-3 -5 9 9.1 2.3
-5 -3 -9 11.4 1.3
-3 5 -9 8.9 1.7
3 -5 -9 10.6 2.5
-3 -9 -5 12.2 2.4
9 5 -3 10.2 2.6
5 3 -9 7 2.4
9 -3 -5 11.8 2.7
5 -3 9 10.2 1.1
-5 -5 9 139.49 8.3
5 5 -9 137.89 8.2
5 9 -5 178.38 8.5
5 -9 5 141.89 7.9
-9 -5 -5 144.59 7.7
-9 -5 5 143.29 8.4
5 -5 -9 147.39 8.4
5 -5 9 147.49 7.4
9 -5 -5 135.89 8.4
9 5 -5 139.69 8.2
9 5 5 144.69 7.8
-5 -9 -5 145.59 8.1
-5 -9 5 133.49 8.2
-5 -5 -9 150.38 7.5
-1 9 -7 4225.68 194.88
-1 -9 7 4271.67 194.98
-9 1 7 4079.39 195.08
-7 -9 -1 4247.57 194.98
9 1 -7 4165.88 195.08
7 -1 -9 4236.98 195.08
9 7 1 4432.56 194.98
1 -7 9 4455.35 194.88
1 7 -9 4508.05 194.88
7 9 -1 4240.68 195.08
-9 -7 1 4403.96 195.08
-7 -1 9 4336.37 195.18
-7 -9 1 4193.98 194.98
9 -1 -7 4276.07 195.08
1 -9 7 4229.98 194.88
1 9 -7 4095.69 194.88
-1 -7 9 4189.88 194.88
7 1 -9 4189.58 194.98
9 7 -1 4390.36 195.08
-1 7 -9 4223.58 194.78
7 9 1 4481.05 195.08
-9 -7 -1 4380.76 194.98
-9 -1 7 4116.59 195.08
-7 1 9 4578.74 195.18
9 7 3 977.8 46.5
9 3 -7 991.5 46.7
7 -3 -9 978.1 46.8
3 7 -9 1034.4 46.7
-7 -3 9 1030 46.8
-7 -9 -3 1011 46.6
-3 -9 7 1024.3 46.7
9 -3 7 1013.4 45.9
-9 -7 3 990.8 46.7
-9 -3 -7 1060.89 46
7 9 -3 999.6 46.7
3 -7 9 1030.5 46.4
-7 -3 -9 1059.09 45.8
9 3 7 982.6 46
3 9 -7 956.6 46.6
-9 -3 7 1001.6 46.8
7 3 -9 978 46.7
-7 -9 3 991.6 46.7
-3 -7 9 1014.2 46.7
-3 -9 -7 916.31 46.5
7 -3 9 1010.9 45.6
7 -3 9 1085.69 45.6
7 9 3 1031.2 46.7
9 -3 -7 969.6 46.8
-9 -7 -3 1010.7 46.5
9 7 -3 980.9 46.7
3 -9 7 996.7 46.5
9 -7 -5 233.48 12.4
9 5 -7 232.48 12.2
5 7 -9 222.78 12.1
7 9 -5 202.88 12
-9 -5 -7 244.08 11.5
-7 -5 9 234.98 12.2
-7 -9 -5 223.08 11.8
-5 -9 7 222.08 12.1
-5 -7 -9 250.07 11.7
7 -5 -9 228.38 12.2
5 -7 9 224.08 11.5
9 7 5 244.98 11.8
-9 -7 5 223.98 12.1
-5 -7 9 233.68 12.1
-9 -5 7 224.78 12.2
-5 -9 -7 259.47 12
-7 -9 5 232.68 12.2
5 -9 7 233.08 11.9
5 9 -7 238.48 12.2
-7 -5 -9 221.28 11.3
7 -5 9 252.97 11.2
7 5 -9 238.48 12.1
9 -5 -7 232.88 12.3
9 7 -5 225.78 12.1
-9 -7 -5 227.68 11.8
-9 -7 -7 2092.69 91.69
-9 -7 7 1979.8 92.09
-7 -9 -7 2060.39 91.89
-7 -9 7 2075.09 92.19
-7 -7 -9 1879.71 91.49
-7 -7 9 1942.91 92.09
7 -9 7 2059.09 91.79
7 -7 -9 2066.89 92.29
7 -7 9 1725.73 91.39
7 7 -9 1991.2 92.09
7 9 -7 2138.09 92.19
9 -7 -7 2067.39 92.29
9 7 -7 2033.6 92.09
-9 -9 -1 4423.86 192.18
-9 -9 1 4168.68 192.18
-9 -1 9 4209.08 192.28
-9 1 9 4179.98 192.28
-1 -9 9 4213.08 192.08
-1 9 -9 4256.87 191.98
1 -9 9 4279.67 191.98
1 9 -9 4318.57 192.08
9 -1 -9 4156.98 192.18
9 1 -9 4093.59 192.18
9 9 -1 4229.78 192.18
9 9 1 4142.79 192.08
-9 -9 -3 1200.38 57.89
-9 -9 3 1160.68 57.99
-9 -3 -9 1332.07 57.09
-9 -3 9 1221.48 58.19
-3 -9 9 1259.67 58.09
3 -9 9 1220.58 57.79
3 9 -9 1281.77 58.09
9 -3 -9 1242.48 58.19
9 -3 9 1307.57 56.89
9 -3 9 1338.77 56.89
9 3 -9 1226.28 58.09
9 9 -3 1240.18 58.09
9 9 3 1255.27 57.99
-9 -9 -5 1036.6 50.69
-9 -9 5 1043.3 50.89
-9 -5 -9 1173.68 50.19
-9 -5 9 1077.39 50.99
-5 -9 -9 1132.99 50.69
-5 -9 9 1110.79 50.99
5 -9 9 1118.79 50.59
5 9 -9 1061.79 50.89
9 -5 -9 1125.29 51.19
9 -5 9 1095.89 50.09
9 5 -9 1048.3 50.89
9 9 -5 1075.19 50.99
9 9 5 1130.59 50.79
-9 -9 -7 2129.69 92.59
-9 -9 7 2050.29 92.89
-9 -7 -9 2169.48 92.39
-9 -7 9 2047.3 92.99
-7 -9 -9 1928.81 92.39
-7 -9 9 2046.7 92.89
7 -9 9 1961.1 92.39
7 9 -9 1932.41 92.79
9 -9 7 1993.2 92.49
9 -7 -9 2077.49 93.09
9 -7 9 2034.3 92.19
9 7 -9 1937.01 92.79
9 9 -7 1972.5 92.79
-9 -9 -9 2123.69 97.09
-9 -9 9 2230.68 97.59
9 -9 -9 2078.49 97.69
9 -9 9 2126.69 96.99
9 9 -9 2054.49 97.49
0 -10 0 9999 453.05
-10 0 -2 447.06 20.8
-10 0 2 461.15 21.1
-2 -10 0 407.16 21
0 -2 -10 457.05 20.8
0 -2 10 439.06 20.7
0 2 -10 437.96 20.6
10 0 -2 439.46 21.1
10 0 2 433.06 20.8
10 2 0 481.55 21.1
-2 0 -10 436.16 20.4
-2 0 10 441.46 20.9
0 -10 -2 381.46 20.9
0 -10 2 429.06 21.1
2 0 -10 438.86 20.8
10 -2 0 432.16 21
-10 -2 0 464.05 21
2 -10 2 55.99 4.5
-10 -2 2 44.1 4.2
10 2 2 44.3 3.7
-2 -10 2 40.9 4.1
-2 -2 -10 48.9 3.5
-2 -2 10 48.9 3.9
-2 2 -10 45.4 3.3
10 -2 2 56.49 4.1
10 2 -2 53.69 4.3
2 -2 -10 49.5 4
-10 -2 -2 51.29 3.9
10 -2 -2 50.89 4.2
2 10 -2 46.3 4.3
2 2 -10 49.99 4
2 -2 10 51.49 3.4
-2 -10 -2 47.7 4
-4 0 -10 247.98 10.6
-10 -4 0 218.28 11.6
0 4 -10 219.48 11.3
0 -4 10 245.58 11.5
4 10 0 212.58 11.7
10 0 -4 228.38 11.7
-4 -10 0 237.48 11.8
0 -4 -10 246.78 11.6
-10 0 -4 217.78 11.2
-10 0 4 215.38 11.8
4 0 -10 222.88 11.6
10 -4 0 217.98 11.6
-4 0 10 218.48 11.7
0 -10 4 218.28 11.7
10 0 4 234.78 11.2
10 4 0 231.68 11.6
4 -2 -10 493.85 23.1
10 2 -4 478.05 23.1
4 10 -2 485.55 23.2
-4 2 -10 500.75 22.2
-10 -4 2 476.05 23.1
-2 -10 4 482.25 23.2
2 4 -10 505.05 23
-10 -2 -4 494.35 22.7
10 4 2 499.75 23
-4 -10 -2 461.55 23.1
2 -4 10 496.25 22.7
10 -4 -2 469.55 23.2
-4 -2 10 498.55 23.2
10 -2 4 472.95 22.7
-4 -2 -10 479.55 22.3
-10 -2 4 464.25 23.2
-10 -4 -2 486.05 23
-2 -10 -4 473.35 23.1
4 -2 10 490.45 22.2
4 2 -10 455.95 23
10 2 4 492.65 22.7
10 -4 2 495.25 23
2 -4 -10 469.75 23
-4 -10 2 455.15 23.1
2 -10 4 481.75 23.1
2 10 -4 489.15 23.2
10 -2 -4 491.15 23.2
-2 -4 10 470.55 23
-2 4 -10 512.55 22.6
10 4 -2 478.85 23.1
4 4 -10 921.31 43.8
4 10 -4 889.41 43.9
4 -4 10 1067.19 43.3
-4 -4 10 959 43.9
10 -4 4 1004.3 43.6
10 4 -4 910.41 43.9
10 4 4 887.21 43.5
-4 -10 -4 924.51 43.9
-4 -10 4 880.21 43.9
-10 -4 -4 967.1 43.6
-10 -4 4 959.3 44
10 -4 -4 971.6 44.1
4 -10 4 897.21 43.8
4 -4 -10 966.8 44
6 10 0 2217.88 98.29
10 0 -6 2152.58 98.29
10 0 6 2215.48 97.59
0 6 -10 2115.59 97.99
6 0 -10 2140.59 98.29
-6 -10 0 2088.69 98.19
10 -6 0 2025 98.19
10 6 0 2232.48 98.19
0 -10 6 2080.39 98.19
0 10 -6 2072.59 98.19
-10 -6 0 2130.89 98.19
-6 0 10 2137.39 98.29
-10 0 6 2178.38 98.39
0 -6 10 2266.17 98.09
2 -6 10 85.19 5.5
-6 -10 -2 86.09 6
-2 -10 6 90.39 6
-10 2 6 101.19 6.6
10 -2 6 88.49 5.1
10 2 -6 96.99 6.6
6 -2 -10 97.29 6.3
2 6 -10 84.59 5.7
10 -6 -2 90.09 6.2
6 10 -2 91.09 5.9
10 6 2 87.39 5.8
-6 -2 10 98.29 6.4
-10 -6 2 92.69 6.1
-10 -2 -6 96.59 5.2
6 2 -10 81.49 6.1
-10 -2 6 98.69 6.6
10 -2 -6 86.19 6.3
-10 -6 -2 90.39 5.8
2 10 -6 93.99 6.2
-6 -10 2 79.89 6.1
-2 6 -10 91.69 5.5
10 6 -2 86.89 6.2
6 10 2 92.49 6.1
10 2 6 84.09 5.1
-2 -6 10 97.49 5.9
2 -10 6 82.59 5.9
4 -6 10 361.76 15.9
-6 -10 -4 320.87 16.3
4 6 -10 345.07 16.4
-10 -4 -6 343.67 15.9
6 -4 -10 324.07 16.6
10 -4 6 328.77 15.9
-6 -4 10 347.87 16.6
10 -6 -4 329.87 16.6
6 10 -4 319.37 16.5
10 6 4 338.17 16.2
-4 -10 6 323.17 16.5
10 4 -6 339.57 16.5
-10 -6 4 318.87 16.5
6 -4 10 343.47 15.4
-4 -6 10 341.67 16.5
10 4 6 341.17 15.9
-10 -4 6 317.77 16.5
-4 -10 -6 317.37 16.3
-6 -10 4 309.97 16.3
-10 -6 -4 330.27 16.2
10 -4 -6 329.17 16.6
10 6 -4 333.87 16.5
-6 -4 -10 328.47 15.5
4 -6 -10 337.27 16.6
4 10 -6 327.57 16.5
6 4 -10 313.97 16.4
4 -10 6 326.37 16.4
-6 -6 10 193.18 10.9
6 -6 -10 211.38 11.2
-6 -10 6 202.78 11
6 -6 10 206.48 10
6 -10 6 202.88 10.6
-6 -6 -10 194.58 10.2
10 6 6 208.78 10.5
-10 -6 6 182.78 10.9
6 6 -10 207.28 10.9
6 10 -6 181.38 10.9
10 -6 -6 202.18 11.2
10 6 -6 202.68 10.9
-10 -6 -6 212.68 10.4
-6 -10 -6 201.88 10.7
0 -10 8 3510.15 158.88
-10 0 8 3300.47 158.98
-8 -10 0 3558.24 158.98
0 -8 10 3593.54 158.78
10 0 8 3673.93 157.88
8 10 0 3556.24 158.98
10 0 -8 3418.06 158.98
10 8 0 3345.07 158.88
-10 -8 0 3599.24 158.88
0 10 -8 3429.96 158.78
8 0 -10 3514.55 158.98
0 8 -10 3462.45 158.78
-8 0 10 3367.96 158.98
10 2 -8 1154.98 53.29
-10 -2 -8 1178.78 52.29
10 8 2 1171.58 53.19
-8 -10 -2 1183.28 53.19
-2 -10 8 1100.89 53.19
8 10 -2 1114.19 53.19
8 -2 -10 1203.78 53.39
-8 -2 10 1060.39 53.19
-10 -8 2 1130.39 53.19
2 -8 10 1175.78 52.99
10 -2 8 1186.98 52.19
2 8 -10 1102.39 53.09
-2 -8 10 1142.39 53.19
-8 -10 2 1102.29 53.19
2 -10 8 1160.58 53.09
2 10 -8 1131.89 53.19
8 10 2 1198.78 53.29
8 2 -10 1107.69 53.19
-2 8 -10 1232.18 52.99
10 -2 -8 1122.49 53.29
10 2 8 1213.28 52.29
-10 -8 -2 1174.48 53.19
-10 -2 8 1104.59 53.29
10 8 -2 1071.59 53.19
10 8 4 51.59 4.2
-8 -4 10 47.8 4.7
-8 -10 -4 54.99 4.6
10 -4 8 49.99 3.2
8 -4 -10 46.3 4.5
-10 -8 4 45 4.3
-4 -8 -10 39.6 3.8
8 10 -4 41.7 4.5
-10 -4 -8 42.8 3.2
10 4 -8 43.1 4.3
-4 -10 8 48 4.4
4 -8 10 41.7 3.7
4 8 -10 41.7 4.2
-4 -10 -8 53.99 4.4
8 10 4 47.3 4.3
10 -4 -8 48.7 4.8
4 10 -8 50.59 4.4
-10 -8 -4 40.3 4
8 -4 10 51.49 2.6
4 -10 8 46.6 4.2
8 -4 10 49.1 2.6
8 4 -10 39.2 4.2
10 8 -4 50.29 4.2
-8 -10 4 41 4.4
-4 -8 10 51.59 4.6
-8 -4 -10 46.3 3
-10 -4 8 42.6 4.5
10 6 -8 567.54 27.6
-8 -10 -6 585.24 27.4
8 -10 6 586.94 27.3
8 10 -6 542.45 27.5
-6 -8 -10 601.74 27.2
10 8 6 580.54 27.2
-10 -8 6 598.74 27.7
6 -8 10 566.84 27
6 8 -10 549.25 27.5
-10 -6 -8 593.14 26.9
8 -6 -10 601.54 27.8
-6 -10 8 553.14 27.5
10 -8 -6 580.74 27.8
-8 -6 10 544.85 27.6
10 -6 -8 588.74 27.8
-8 -6 -10 599.24 26.8
-10 -8 -6 588.24 27.3
-6 -10 -8 596.84 27.4
6 -8 -10 598.34 27.8
6 -10 8 561.04 27.3
6 10 -8 561.54 27.5
-10 -6 8 543.35 27.6
8 -6 10 558.04 26.6
8 6 -10 552.24 27.5
-8 -10 6 571.54 27.6
10 8 -6 568.74 27.5
-6 -8 10 564.64 27.6
-10 -8 -8 1244.68 57.39
-10 -8 8 1242.88 57.99
-8 -10 -8 1205.88 57.59
-8 -10 8 1257.87 57.99
-8 -8 -10 1301.17 57.39
-8 -8 10 1240.78 57.99
8 -10 8 1222.68 57.49
8 -8 -10 1294.57 58.09
8 -8 10 1255.67 57.29
8 8 -10 1216.68 57.89
8 10 -8 1264.47 57.89
10 -8 -8 1230.38 58.09
10 -8 8 1287.77 57.39
10 8 -8 1180.48 57.79
-10 -10 0 3539.55 158.58
-10 0 10 3254.67 158.68
0 -10 10 3600.84 158.58
0 10 -10 3608.94 158.58
10 0 -10 3377.46 158.68
10 10 0 3488.05 158.68
-10 -10 -2 261.37 13.5
-10 -10 2 254.77 13.5
-10 -2 10 270.37 13.9
-2 -10 10 263.97 13.5
2 -10 10 273.07 13.4
2 10 -10 233.58 13.5
10 -2 -10 261.67 13.8
10 2 -10 257.07 13.6
10 10 -2 240.18 13.5
10 10 2 274.77 13.6
-10 -10 -4 1.6 2.7
-10 -10 4 2.3 2.7
-10 -4 -10 1.2 1.3
-10 -4 10 2.1 3.3
-4 -10 -10 1 2.5
-4 -10 10 1.4 2.9
4 -10 10 2.7 2.5
4 10 -10 0.7 2.8
10 -4 -10 1.8 3.1
10 -4 10 0.7 0.8
10 -4 10 1.7 0.8
10 4 -10 0 2.9
10 10 -4 1.5 2.8
10 10 4 2.7 2.8
-10 -10 -6 134.19 7.8
-10 -10 6 122.29 7.9
-10 -6 -10 121.69 6.7
-10 -6 10 133.89 8.2
-6 -10 -10 128.19 7.7
-6 -10 10 119.59 7.9
6 -10 10 129.79 7.5
6 10 -10 120.69 7.9
10 -6 -10 110.49 8.2
10 -6 10 115.89 6.5
10 6 -10 118.89 7.9
10 10 -6 114.19 7.8
-10 -10 -8 471.55 23.7
-10 -10 8 497.75 24.1
-10 -8 -10 481.25 23.3
-10 -8 10 491.15 24.1
-8 -10 -10 485.55 23.6
-8 -10 10 476.25 24.1
8 -10 -10 526.35 24.4
8 -10 10 510.25 23.6
8 10 -10 481.85 24
10 -10 -8 508.95 24.4
10 -10 8 477.95 23.6
10 -8 -10 487.95 24.2
10 -8 10 487.25 23.2
10 8 -10 489.45 24.1
10 10 -8 492.25 24
-10 -10 -10 352.36 17.9
-10 -10 10 381.56 18.4
10 -10 -10 367.76 18.8
10 -10 10 356.56 17.8
10 10 -10 350.06 18.3
-11 -1 -1 2394.06 106.79
-11 -1 1 2343.17 106.89
-11 1 -1 2382.76 106.79
-11 1 1 2214.08 106.89
-1 -11 -1 2269.07 106.89
-1 -11 1 2151.48 106.89
-1 -1 -11 2578.34 106.59
-1 -1 11 2388.36 106.69
-1 1 -11 2329.57 106.49
1 -11 -1 2284.07 106.89
1 -11 1 2238.68 106.89
1 -1 -11 2363.66 106.69
1 -1 11 2374.76 106.49
1 1 -11 2350.86 106.59
11 -1 -1 2354.06 106.89
11 -1 1 2361.56 106.79
11 1 -1 2275.17 106.89
11 1 1 2465.95 106.79
-11 -1 -3 597.44 27.9
-1 -11 3 557.74 28.2
-11 1 3 587.74 28.3
-3 -11 -1 593.44 28.3
-3 -1 11 606.84 28.2
-1 -3 -11 646.14 27.9
11 3 1 622.54 28.1
-11 -3 1 610.34 28.2
11 -3 -1 557.64 28.2
1 -3 11 613.44 27.8
1 3 -11 604.54 27.9
-3 1 -11 593.54 27.4
11 -1 3 619.84 27.9
11 1 -3 592.14 28.2
3 -1 -11 599.84 28.1
3 1 -11 575.74 28
1 -3 -11 591.74 28
11 -3 1 537.05 28
11 3 -1 630.24 28.2
-1 -3 11 590.04 28
-3 -1 -11 599.54 27.5
-3 -11 1 573.64 28.2
11 -1 -3 603.64 28.3
-1 -11 -3 562.64 28.2
-11 -1 3 606.44 28.3
1 -11 3 602.84 28.3
11 1 3 622.44 27.9
-11 -3 -1 576.14 28.1
-1 3 -11 605.44 27.7
3 -3 11 4319.37 190.08
3 3 -11 4125.59 190.48
11 3 3 4256.07 190.48
-3 -11 3 3950.2 190.68
-3 -3 -11 4401.66 190.18
-3 -3 11 4170.48 190.58
-3 3 -11 4139.89 189.98
3 11 -3 4093.49 190.68
11 -3 -3 4135.79 190.78
11 -3 3 4384.76 190.48
11 3 -3 4010.7 190.68
3 -11 3 3857.31 190.58
3 -3 -11 4259.37 190.68
-11 -3 -3 4317.97 190.48
-11 -3 3 4122.79 190.78
-3 -11 -3 4524.25 190.78
5 -1 -11 6.1 2.4
-11 1 5 7.3 2.8
-11 -1 -5 7.4 1.9
1 -5 11 4.2 2
11 -1 5 4 1.7
11 5 1 5.5 2.5
-11 -5 1 5.6 2.5
1 5 -11 6 2.2
-5 -11 -1 4.5 2.6
11 -5 -1 5.7 2.6
5 11 -1 5.7 2.6
-1 -11 5 3.3 2.6
-5 -1 11 5.7 2.6
11 1 -5 3.5 2.5
11 5 -1 7.7 2.6
-5 -1 -11 3.9 0.5
11 -1 -5 5.5 2.4
5 11 1 2.9 2.5
5 1 -11 5.6 2.4
-11 -5 -1 7.2 2.5
11 -5 1 6.2 2.5
1 -11 5 7.1 2.5
1 11 -5 6.5 2.6
11 1 5 5.5 1.7
-5 1 11 7.7 2.6
-1 -5 11 3.6 2.1
-11 -1 5 7.1 2.7
-1 5 -11 5.5 2
1 -5 -11 3.9 2.4
-5 -11 1 4.6 2.5
11 -5 -3 2499.65 116.49
11 3 -5 2537.55 116.49
5 -3 -11 2808.82 116.59
-5 -3 11 2477.05 116.39
3 5 -11 2567.94 116.29
-11 -5 3 2617.54 116.59
3 -5 11 2576.24 115.89
11 -3 5 2766.02 116.09
-3 -11 5 2387.26 116.39
11 5 3 2563.74 116.19
5 11 -3 2414.66 116.39
-5 -11 -3 2470.55 116.39
-11 -3 -5 2579.64 115.99
-5 -3 -11 2662.53 115.59
5 3 -11 2681.23 116.39
-5 -11 3 2454.65 116.39
-3 -5 11 2397.16 116.29
-3 5 -11 2517.65 115.89
3 -5 -11 2637.64 116.49
-11 -5 -3 2611.44 116.29
-3 -11 -5 2455.65 116.39
5 -3 11 2292.27 115.49
11 -3 -5 2595.14 116.59
3 -11 5 2538.45 116.39
3 11 -5 2497.35 116.49
11 3 5 2648.44 115.99
-11 -3 5 2582.54 116.59
11 -5 3 2561.54 116.29
11 5 -3 2370.56 116.39
-5 -3 -11 2678.43 115.59
5 -5 -11 3427.66 151.98
11 -5 5 3500.25 151.48
5 5 -11 3245.78 151.68
5 11 -5 3078.49 151.78
11 -5 -5 3428.26 151.98
-5 -5 11 3308.17 151.78
-11 -5 -5 3464.75 151.48
-11 -5 5 3410.56 151.98
5 -5 11 3312.47 151.08
-5 -11 5 3297.87 151.88
-5 -5 -11 3415.16 151.18
5 -11 5 3169.38 151.68
-5 -11 -5 3272.27 151.78
11 5 5 3303.67 151.48
11 5 -5 3317.97 151.88
11 1 -7 984.7 45.6
-11 1 7 909.41 45.5
11 7 1 963.5 45.4
-11 -7 1 961.2 45.5
11 -1 7 991.6 44.6
11 -7 -1 982.1 45.6
-7 -1 11 977.5 45.6
-1 -11 7 999.1 45.5
1 7 -11 1000 45.3
7 11 -1 964.7 45.5
7 -1 -11 977.4 45.5
-7 -11 -1 1007.7 45.5
1 -7 11 972.6 45.2
11 -7 1 974.2 45.5
11 1 7 1016.4 44.7
11 -1 -7 974.4 45.6
1 11 -7 966.1 45.5
-7 1 11 966.3 45.6
11 7 -1 976.1 45.5
-1 -7 11 1011.7 45.4
-7 -11 1 957.9 45.5
1 -11 7 918.71 45.4
-11 -7 -1 973.7 45.4
7 11 1 951.2 45.5
7 1 -11 971.1 45.5
-1 7 -11 1016.7 45.3
-11 -1 7 950 45.6
-11 -3 -7 339.57 15.7
7 11 -3 326.27 16.6
11 7 3 359.56 16.4
11 -3 7 339.47 15.6
-11 -7 3 324.17 16.5
-3 -11 7 323.87 16.5
-7 -3 11 310.07 16.6
-7 -11 -3 334.47 16.5
11 3 -7 332.67 16.6
7 -3 -11 330.67 16.6
11 -7 -3 344.27 16.7
3 -7 11 341.97 16.1
3 7 -11 333.97 16.4
-3 7 -11 347.57 16
11 7 -3 318.77 16.5
-7 -3 -11 295.97 15.1
-7 -11 3 325.47 16.5
-11 -7 -3 340.47 16.4
-3 -11 -7 321.47 16.4
-11 -3 7 331.07 16.7
3 -11 7 234.08 16.1
3 11 -7 327.17 16.5
-3 -7 11 341.87 16.6
7 3 -11 346.77 16.6
11 -3 -7 321.77 16.7
11 3 7 337.17 15.7
-7 -3 -11 362.66 15.1
-5 -7 -11 649.83 28.8
11 7 5 623.64 29
-7 -5 11 603.74 29.4
5 -7 11 613.04 28.7
5 7 -11 604.14 29.2
7 -11 5 581.74 29.1
7 11 -5 592.24 29.3
7 -5 -11 634.94 29.5
11 -5 7 624.44 28.7
-11 -5 -7 648.14 28.8
-7 -11 -5 625.14 29.2
-11 -7 5 579.44 29.3
11 -7 -5 614.94 29.5
-5 -11 7 575.84 29.3
11 5 -7 580.54 29.3
-7 -11 5 602.34 29.3
11 -5 -7 595.44 29.4
5 -11 7 625.54 29.2
-11 -5 7 622.64 29.5
11 5 7 609.74 28.7
-5 -7 11 625.84 29.4
7 5 -11 591.44 29.2
-11 -7 -5 655.93 29.1
5 11 -7 607.64 29.3
5 -7 -11 605.64 29.5
-5 -11 -7 638.64 29.3
-7 -5 -11 642.34 28.4
7 -5 11 626.94 28.2
11 7 -5 593.64 29.3
7 11 -7 105.09 7.3
11 -7 -7 101.49 7.5
11 7 -7 98.19 7
11 7 7 97.29 6.4
7 -7 11 100.09 5.9
-7 -11 -7 102.89 6.9
-11 -7 7 102.79 7
7 7 -11 104.79 7
7 -7 -11 105.29 7.3
-11 -7 -7 100.49 6.4
-7 -7 -11 113.89 6.2
-7 -11 7 93.49 7
-7 -7 11 107.69 7.3
7 -11 7 97.29 6.6
1 9 -11 955.8 45.3
-9 -1 11 997.4 45.7
1 -9 11 950.3 45.2
11 9 1 991.6 45.5
-11 1 9 971.7 45.7
-9 -11 -1 974.6 45.4
-1 -11 9 940.81 45.4
11 1 -9 951.8 45.5
-1 11 -9 978.3 45.4
9 -1 -11 980.2 45.6
9 11 -1 918.81 45.5
-11 -9 1 967.1 45.5
9 1 -11 981.7 45.5
-11 -1 9 972.7 45.6
1 11 -9 983.1 45.5
11 9 -1 965 45.5
-1 -9 11 1034.3 45.5
-1 9 -11 1026.6 45.3
-9 1 11 966.3 45.7
-9 -11 1 914.01 45.4
9 11 1 980 45.5
1 -11 9 993.2 45.4
-11 -9 -1 1005.2 45.5
11 -1 -9 949.11 45.6
-9 -11 -3 111.49 7.1
11 9 3 116.29 7.4
-11 -9 3 117.69 7.3
-9 -3 11 101.29 7.3
3 9 -11 111.69 7.1
-3 -11 9 111.29 7.2
9 -3 -11 105.89 7.4
9 11 -3 96.69 7.1
3 -9 11 104.49 6.8
11 3 -9 118.19 7.4
-11 -3 -9 112.19 5.7
11 -3 -9 107.59 7.7
-3 -11 -9 113.39 7
3 11 -9 91.79 7
9 11 3 114.49 7.2
3 -11 9 124.09 7.2
9 3 -11 106.09 7.2
11 9 -3 108.19 7.4
-11 -9 -3 116.69 7.2
-3 -9 11 98.69 7
-11 -3 9 99.49 7.3
-9 -11 3 115.59 7.3
5 -9 11 31.9 3.5
9 11 -5 38.2 4.1
-11 -5 -9 37.4 3.1
9 -5 -11 37.4 4.6
11 -9 -5 36.4 4.7
11 -5 9 35.9 2.8
-11 -9 5 36.6 4.3
11 9 5 34.4 3.9
-9 -5 11 33.8 4.3
11 5 -9 29.7 4.1
-5 -9 -11 41.6 3.9
5 9 -11 37 4.2
-9 -11 -5 33.6 4
11 -5 9 30.7 2.9
-5 -11 9 31.9 4.2
5 11 -9 40.1 4.1
9 5 -11 37.7 4.2
-11 -5 9 40.8 4.4
11 9 -5 34.8 4.1
11 -5 -9 39.7 4.5
9 -5 11 37.5 2.3
-9 -11 5 39.5 4.2
-5 -11 -9 37.7 4
-5 -9 11 34.9 4.2
5 -11 9 30.3 3.8
-9 -5 -11 38.1 2.7
9 -5 11 38 2.3
-11 -9 -5 36.1 3.9
11 7 -9 163.18 9.7
11 -7 9 154.88 8.6
11 -9 -7 164.48 10
-9 -11 -7 163.38 9.3
-9 -7 11 181.18 9.8
-7 -9 -11 165.18 9.1
9 -11 7 154.98 9.3
-7 -11 9 165.08 9.7
7 -9 11 148.29 8.9
7 9 -11 154.98 9.6
9 -7 -11 169.78 10
9 11 -7 157.08 9.6
-11 -9 7 157.08 9.7
-11 -7 -9 135.09 8.7
-7 -9 11 161.68 9.7
11 -7 -9 154.08 9.8
-9 -7 -11 175.58 8.7
-9 -11 7 162.38 9.7
-7 -11 -9 200.88 9.6
7 -9 -11 173.98 10.1
7 -11 9 159.28 9.2
7 11 -9 145.19 9.5
-11 -9 -7 165.38 9.3
9 -7 11 181.38 8.5
9 7 -11 159.48 9.7
-11 -7 9 167.48 9.8
11 9 -7 169.28 9.7
-11 -9 -9 295.27 11.9
-11 -9 9 230.58 12.3
-9 -11 -9 213.48 11.7
-9 -11 9 220.38 12.2
-9 -9 -11 218.38 11.4
-9 -9 11 219.48 12.3
9 -11 9 197.58 11.7
9 -9 -11 216.18 12.4
9 -9 11 218.98 11.3
9 9 -11 202.48 12
9 11 -9 212.28 12
11 -9 -9 211.08 12.4
11 -9 9 183.48 11.2
11 9 -9 217.98 12.1
-11 -11 -1 640.84 30.8
-11 -11 1 658.13 30.9
-11 -1 11 676.63 31.1
-11 1 11 663.63 31.1
-1 -11 11 639.54 30.8
-1 11 -11 659.73 30.7
1 -11 11 607.34 30.6
1 11 -11 656.73 30.8
11 -1 -11 648.84 31
11 1 -11 657.03 31
11 11 -1 611.34 30.8
11 11 1 619.64 30.8
-11 -11 -3 689.03 33.8
-11 -11 3 724.83 34
-11 -3 11 769.22 34.1
-3 -11 11 715.83 33.9
3 -11 11 766.12 33.7
3 11 -11 682.03 33.8
11 -3 -11 719.83 34.1
11 3 -11 700.83 33.9
11 11 -3 662.73 33.9
11 11 3 695.33 33.9
-11 -11 -5 587.54 29
-11 -11 5 608.64 29.2
-11 -5 -11 625.24 27.9
-11 -5 11 617.04 29.3
-5 -11 -11 592.64 28.9
-5 -11 11 569.44 29
5 -11 11 524.45 28.6
5 11 -11 583.34 29.1
11 -5 -11 603.24 29.3
11 -5 11 673.33 27.6
11 -5 11 621.04 27.6
11 5 -11 605.54 29.1
11 11 -5 610.24 29.2
11 11 5 603.74 29.1
-11 -11 -7 7.4 3.3
-11 -11 7 7.7 3.5
-11 -7 -11 6.6 2.3
-11 -7 11 10.2 3.8
-7 -11 -11 4.9 3.1
-7 -11 11 6.8 3.1
7 -11 11 7.1 2.9
7 11 -11 3.8 3.4
11 -11 -7 8.3 3.8
11 -7 -11 9.5 3.5
11 -7 11 5.9 2
11 -7 11 10.4 2.3
11 7 -11 8.4 3
11 11 -7 7.6 3.5
-11 -11 -9 0.3 3
-11 -11 9 0.9 3.4
-11 -9 -11 0.3 2.6
-11 -9 11 -1.2 3
-9 -11 -11 -0.4 2.9
-9 -11 11 0 3.1
9 -11 -11 1.9 3.7
9 -11 11 -1.7 2.8
9 11 -11 0.2 3.4
11 -11 -9 -1 4
11 -11 9 0.6 3
11 -9 -11 -1.4 3.5
11 -9 11 0.6 2.4
11 9 -11 1 3.4
11 11 -9 0.5 3.5
-11 -11 -11 15.8 3.6
-11 -11 11 18.7 4.1
11 -11 -11 14.8 4.5
11 -11 11 10.2 3.3
11 11 -11 10.1 3.9
-12 0 0 5521.65 248.98
0 -12 0 5200.88 249.08
0 0 -12 5712.93 248.78
12 0 0 5489.05 248.98
-12 0 -2 6.6 2.3
-12 0 2 6.8 2.7
-2 -12 0 5.3 2.7
0 -2 -12 8.6 2.2
0 -2 12 5.9 2.1
0 2 -12 6 1.9
2 -12 0 7.2 2.1
12 0 -2 8.7 2.6
12 0 2 7 2.3
-2 0 -12 8 1.6
-2 0 12 9 2.5
0 -12 -2 5.8 2.4
0 -12 2 6.5 2.8
2 0 -12 6.8 2.2
12 -2 0 5.9 2.4
12 2 0 7.2 2.5
-12 -2 0 7.1 2.6
2 -2 12 550.74 25.2
12 -2 -2 540.65 25.8
12 -2 2 527.25 25.6
12 2 -2 534.85 25.7
2 2 -12 573.24 25.6
2 -2 -12 504.15 25.5
-12 -2 -2 534.15 25.6
-12 -2 2 528.45 25.8
-2 -12 -2 524.35 25.8
-2 2 -12 564.34 25.1
-2 -12 2 533.55 25.8
-2 -2 -12 560.04 25.2
-2 -2 12 570.74 25.7
2 -12 2 494.65 25.7
12 2 2 536.55 25.5
4 0 -12 1075.49 47.4
12 -4 0 968.4 47.3
12 4 0 1025.9 47.3
12 0 4 1027.1 47
12 0 -4 1016.9 47.4
0 -4 12 993.5 47.1
-4 0 12 983.3 47.3
0 -12 4 1027.6 47.4
-4 -12 0 974.1 47.4
-12 -4 0 992.8 47.3
-4 0 -12 1077.59 46.4
-12 0 4 979.8 47.4
-12 0 -4 1058.99 47.1
0 -4 -12 1019.8 47.1
0 4 -12 1017.9 47
-12 -4 2 3277.97 153.28
12 -4 -2 3244.28 153.38
-2 -4 -12 3339.87 152.88
2 -4 12 3621.44 152.88
-4 2 -12 3402.46 152.38
12 4 2 3480.85 153.18
12 -2 4 3536.75 152.98
12 2 -4 3391.86 153.38
-4 -12 -2 3097.89 153.18
4 -2 -12 3376.06 153.28
2 4 -12 3335.17 153.08
-4 -2 12 3323.27 153.28
4 -12 2 3177.28 153.18
4 12 -2 3161.38 153.28
-12 -2 -4 3545.65 152.98
-2 -12 4 3304.27 153.28
12 2 4 3533.45 152.98
-4 -12 2 3267.97 153.28
-12 -2 4 3249.57 153.38
2 -12 4 3407.86 153.38
-2 4 -12 3338.87 152.78
2 -4 -12 3432.36 153.28
4 2 -12 3296.17 153.18
-2 -4 12 3439.66 153.18
12 -4 2 3308.57 153.18
12 4 -2 3310.87 153.28
12 -2 -4 3385.66 153.38
2 12 -4 3240.58 153.28
-12 -4 -2 3461.55 153.18
-4 -2 -12 3597.04 152.48
-2 -12 -4 3363.46 153.28
-4 -12 4 6414.56 304.87
-4 -4 -12 6821.72 304.27
-12 -4 -4 6999.7 304.67
4 4 -12 6791.12 304.77
4 12 -4 6701.43 304.97
12 -4 -4 6521.45 304.97
12 -4 4 6882.11 304.67
12 4 -4 6788.42 304.97
12 4 4 6929.01 304.57
-12 -4 4 6867.41 304.97
-4 -12 -4 6682.83 304.87
4 -4 12 7041.1 304.17
4 -12 4 6232.08 304.77
4 -4 -12 6428.46 304.87
-4 -4 12 6623.64 304.87
-6 0 12 84.29 6.5
0 -12 6 92.19 6.5
-12 -6 0 94.19 6.4
0 -6 12 98.19 6.3
12 0 6 109.39 5.7
6 0 -12 100.69 6.5
12 -6 0 104.39 6.8
12 6 0 105.89 6.6
0 6 -12 99.59 6.2
6 12 0 101.19 6.8
12 0 -6 103.69 6.8
-6 -12 0 88.29 6.5
0 -6 -12 100.59 6.6
-12 0 6 97.19 6.9
6 -2 -12 446.86 21
-6 -12 -2 436.16 20.9
12 -6 -2 424.36 21.1
12 -2 6 435.26 20.2
2 -6 12 436.66 20.5
2 6 -12 438.06 20.7
-12 -6 2 416.96 20.9
-2 -12 6 402.06 20.9
12 2 -6 420.46 20.9
6 12 -2 384.36 20.9
12 6 2 449.76 20.8
-12 -2 -6 442.16 20.3
-6 -2 12 445.86 21.1
12 2 6 412.06 20.2
-2 -6 12 420.56 20.8
-2 -12 -6 310.57 20.5
-12 -6 -2 437.46 20.8
-6 -12 2 424.16 20.9
6 2 -12 423.66 20.9
-2 6 -12 461.75 20.5
12 -6 2 455.15 21
12 6 -2 428.66 20.9
-12 -2 6 436.86 21.1
2 12 -6 447.56 21
2 -12 6 408.66 20.8
12 -2 -6 437.26 21.1
2 -6 -12 470.95 21
-4 -12 6 3391.76 159.98
12 -6 -4 3402.66 160.08
6 -4 -12 3650.63 160.08
12 4 -6 3436.46 159.98
-12 -6 4 3450.95 160.08
6 12 -4 3356.16 159.98
-6 -4 12 3464.95 159.98
12 6 4 3443.16 159.68
-12 -4 -6 3428.96 159.48
4 6 -12 3580.64 159.88
-6 -12 -4 3398.06 159.88
12 -4 6 3598.44 159.48
4 -6 12 3681.23 159.38
6 -12 4 3368.86 159.88
-4 -12 -6 3408.66 159.88
12 4 6 4030.3 159.58
12 -4 -6 3336.17 160.08
12 -6 4 3567.74 159.78
-12 -4 6 3490.45 160.08
4 12 -6 3385.26 159.98
6 -4 12 3504.15 158.88
4 -12 6 3428.96 159.88
-6 -12 4 3579.34 160.08
-4 -6 12 3515.75 159.98
4 -6 -12 3693.73 160.08
12 6 -4 3343.97 159.88
6 4 -12 3393.96 159.88
-6 -4 -12 3621.44 159.08
-6 -4 -12 3655.53 159.08
-12 -6 -4 3640.64 159.78
-6 -12 -6 1523.35 69.59
-12 -6 -6 1329.97 69.09
-12 -6 6 1495.55 69.69
-6 -6 12 1503.25 69.69
6 -12 6 1529.45 69.49
6 -6 -12 1533.15 69.79
6 6 -12 1461.65 69.49
6 12 -6 1472.15 69.59
12 -6 -6 1477.35 69.79
12 -6 6 1538.55 69.19
-6 -12 6 1513.45 69.69
-6 -6 -12 1740.73 68.99
12 6 -6 1414.96 69.59
12 6 6 1551.34 69.29
-8 -12 0 670.43 32.1
0 -8 12 687.13 31.9
0 8 -12 693.63 31.9
8 12 0 655.83 32.1
12 0 -8 644.34 32.2
12 0 8 634.14 31
-12 -8 0 664.03 32.1
-8 0 12 681.03 32.3
0 -12 8 711.33 32.2
0 12 -8 640.54 32
8 0 -12 677.33 32.2
12 -8 0 713.03 32.4
12 8 0 700.13 32.2
-12 0 8 687.53 32.4
-12 -8 2 9 3.1
-8 -2 12 8.7 3.1
-8 -12 -2 6.3 2.9
12 -2 8 9.5 1.7
12 2 -8 11.9 3.3
8 12 -2 9.8 3.2
-12 -2 -8 9.7 1.8
2 -8 12 11.5 2.7
-2 -12 8 7.7 3
12 -8 -2 8.6 3.3
12 8 2 7.8 3
8 -2 -12 6.1 3.2
2 8 -12 8.4 2.9
-2 8 -12 6.3 2.4
8 12 2 6.2 3
-8 -12 2 3.1 3
-12 -8 -2 7.4 2.8
12 8 -2 5.6 3
-2 -8 12 10.9 3.1
2 12 -8 8.2 3
2 -12 8 8.9 3
12 2 8 9.3 1.8
-12 -2 8 5.6 3.2
8 2 -12 7.8 3
12 -2 -8 6.6 2.9
12 4 -8 734.63 36.5
-8 -4 12 768.62 36.7
-4 -12 8 738.93 36.5
8 12 -4 795.02 36.7
8 -4 -12 786.52 36.7
12 8 4 807.32 36.5
4 -8 12 787.22 36.1
4 8 -12 783.12 36.5
-12 -8 4 815.52 36.7
12 -4 8 792.12 35.7
-8 -12 -4 657.63 36.3
-12 -4 -8 695.53 35.7
12 -8 -4 768.62 36.7
-4 -8 12 723.63 36.5
-8 -4 -12 804.22 35.3
-8 -4 -12 835.32 35.3
4 -12 8 752.72 36.4
4 12 -8 756.22 36.5
12 4 8 815.92 35.8
4 -8 -12 767.82 36.7
-12 -8 -4 783.42 36.4
12 -4 -8 743.03 36.6
-4 -12 -8 772.72 36.5
-8 -12 4 789.72 36.6
12 8 -4 740.23 36.5
8 4 -12 783.22 36.6
-12 -4 8 829.72 36.8
-8 -6 12 5 3.1
-6 -12 8 5 2.8
8 12 -6 2.9 2.9
12 -8 -6 -0.2 3.4
12 -6 8 1.3 2.2
-12 -8 6 4.2 3.2
12 8 6 1.8 2.7
6 8 -12 1.5 3
8 -12 6 0.9 2.8
8 -6 -12 4.2 3.4
-8 -12 -6 2.9 2.9
-6 -8 -12 2.3 2.3
12 6 -8 3.8 3.1
6 -8 12 4.6 2.2
-12 -6 -8 -0.1 2.1
-6 -12 -8 3.5 2.9
12 6 8 5.5 2.4
-12 -8 -6 3.8 2.8
8 -6 12 2.8 1.5
-8 -6 -12 3.5 1.8
6 12 -8 2.9 2.9
12 8 -6 4.4 3
6 -12 8 1.8 2.9
12 -6 -8 0.7 3
-8 -12 6 2.7 3.2
8 6 -12 3.5 3.1
-6 -8 12 0.7 3.2
-12 -6 8 4.1 3.2
6 -8 -12 3.2 3.3
8 -8 -12 374.36 18.6
12 -8 -8 372.36 18.6
-8 -12 -8 348.67 18.2
-8 -8 12 367.56 18.5
-8 -8 -12 368.36 17.6
12 8 -8 361.26 18.3
-8 -12 8 380.16 18.4
8 -12 8 328.77 18
8 12 -8 341.77 18.3
8 -8 12 367.46 17.4
8 8 -12 361.56 18.3
-12 -8 -8 368.06 17.8
-12 -8 8 361.36 18.4
-10 0 12 558.24 27.6
10 12 0 543.35 27.4
0 -12 10 551.14 27.3
0 12 -10 594.24 27.3
0 -10 12 575.24 27.2
0 10 -12 596.34 27.3
12 0 -10 582.24 27.5
-12 0 10 591.54 27.6
12 10 0 539.95 27.3
10 0 -12 530.55 27.4
-12 -10 0 573.74 27.4
-10 -12 0 572.34 27.4
10 -2 -12 106.49 7.3
10 12 -2 87.19 7
2 -10 12 102.79 6.9
2 10 -12 109.89 7.1
12 10 2 126.19 7.8
12 2 -10 91.59 7.1
-10 -2 12 111.19 7.6
-2 -12 10 101.39 7.1
-12 -10 2 108.99 7.3
-10 -12 -2 116.89 7.5
-12 -2 10 105.29 7.4
10 12 2 87.09 7
12 -2 -10 100.59 7.5
2 12 -10 97.29 7.1
2 -12 10 107.29 7.2
12 10 -2 96.79 7.1
-10 -12 2 114.39 7.3
-12 -10 -2 102.29 7.1
-2 10 -12 109.39 6.9
-2 -10 12 109.29 7.2
10 2 -12 93.99 7.2
12 -4 10 1442.76 58.09
10 12 -4 1360.86 59.49
12 -10 -4 1172.88 59.49
10 -4 -12 1118.49 59.29
-12 -4 -10 1316.17 58.29
4 -10 12 1256.47 58.99
4 10 -12 1204.58 59.19
-12 -10 4 1306.07 59.39
-10 -12 -4 1160.18 59.19
-4 -12 10 1333.87 59.49
-4 -10 -12 1279.27 59.09
12 -4 10 1394.56 58.09
12 4 -10 1230.68 59.29
-10 -4 12 1319.97 59.49
12 10 4 1302.67 59.29
10 12 4 1274.17 59.29
-4 -12 -10 1257.57 59.19
-10 -12 4 1296.47 59.39
4 -12 10 1229.28 59.09
4 12 -10 1248.18 59.39
12 -4 -10 1345.37 59.59
-12 -4 10 1288.67 59.49
-12 -10 -4 1249.88 59.19
12 10 -4 1283.77 59.39
-4 -10 12 1214.18 59.29
10 4 -12 1263.57 59.39
-12 -6 -10 229.28 11
12 -10 -6 206.78 12.3
-12 -10 6 228.28 12.2
-10 -12 -6 212.28 12
-10 -6 12 219.58 12.3
-6 -10 -12 208.18 11.5
12 6 -10 200.58 11.9
-6 -12 10 213.28 12
6 -10 12 198.08 11.4
6 10 -12 193.28 11.8
10 12 -6 209.68 12.1
10 -6 -12 199.48 12.1
12 -6 10 222.78 10.7
12 -6 10 226.78 10.8
12 10 6 203.68 11.8
-12 -6 10 227.78 12.3
12 -6 -10 212.18 12.2
-10 -12 6 225.58 12.1
-6 -10 12 202.58 12
6 -12 10 198.18 11.6
6 12 -10 204.28 11.9
10 6 -12 215.68 12
-12 -10 -6 198.78 11.7
12 10 -6 221.18 12
-6 -12 -10 200.48 11.8
6 -10 -12 210.48 12.4
10 -6 12 249.58 10.3
10 -6 12 234.38 10.3
-10 -6 -12 231.48 10.7
12 -8 10 3.2 2.6
12 8 -10 5.6 3.6
12 -8 10 1.9 2.4
8 -10 12 2 2.6
8 10 -12 0 2.9
10 -12 8 3.2 3
10 12 -8 3.2 3.5
-8 -12 10 0.1 3.1
-12 -8 -10 0.7 2.5
12 -10 -8 2.4 3.8
-10 -12 -8 2.4 3.3
10 -8 -12 -1 3.6
-8 -10 -12 2.6 2.9
-12 -10 8 3.9 3.5
-10 -8 12 3.6 3.3
-10 -12 8 2 3.4
-8 -10 12 3.6 3.5
-10 -8 -12 1.4 2.3
8 -10 -12 -0.4 3.6
-8 -12 -10 4.9 3.3
12 -8 -10 4.6 3.7
8 -12 10 2.2 3.1
8 12 -10 1.4 3.2
-12 -10 -8 1.1 3.1
10 -8 12 5.2 2.1
10 8 -12 3.4 3.3
-12 -8 10 5.6 3.4
12 10 -8 1.9 3.4
-12 -10 -10 32.3 4.1
-12 -10 10 33.9 4.5
-10 -12 -10 22.7 4
-10 -12 10 34.5 5
-10 -10 -12 34.7 4
-10 -10 12 38.3 4.8
10 -12 -10 27.4 4.7
10 -12 10 27.7 4.1
10 -10 -12 34.2 5.1
10 -10 12 31.4 3.7
10 10 -12 34.7 4.8
10 12 -10 36.8 4.7
12 -10 -10 35.6 4.9
12 -10 10 41.8 4.1
12 10 -10 27.5 4.7
-12 -12 0 77.89 6.1
-12 0 12 61.89 6.3
0 -12 12 73.59 6.1
0 12 -12 73.19 5.9
12 0 -12 69.19 6.1
12 12 0 77.19 6.4
-12 -12 -2 764.02 35.7
-12 -12 2 786.22 35.8
-12 -2 12 785.92 36
-2 -12 12 729.13 35.7
2 -12 12 667.83 35.4
2 12 -12 746.23 35.7
12 -2 -12 756.72 35.9
12 2 -12 772.52 35.8
12 12 -2 758.72 35.8
12 12 2 737.63 35.8
-12 -12 -4 3412.56 156.88
-12 -12 4 3566.94 157.08
-12 -4 12 3607.84 157.18
-4 -12 -12 3205.48 156.68
-4 -12 12 3524.45 157.08
4 -12 12 3054.29 156.58
4 12 -12 3582.84 156.98
12 -4 -12 3647.24 157.18
12 4 -12 3379.86 156.98
12 12 -4 3492.75 156.98
12 12 4 3330.77 156.88
-12 -12 -6 1232.98 59.39
-12 -12 6 1256.07 59.59
-12 -6 -12 1325.87 58.49
-12 -6 12 1358.46 59.89
-6 -12 -12 1141.79 59.29
-6 -12 12 1303.97 59.69
6 -12 12 1165.38 59.19
6 12 -12 1271.47 59.59
12 -6 -12 1249.97 59.69
12 -6 12 1419.26 57.99
12 6 -12 1281.77 59.59
12 12 -6 1315.97 59.69
-12 -12 -8 194.58 13
-12 -12 8 262.97 13.5
-12 -8 -12 255.47 12.4
-12 -8 12 262.77 13.7
-8 -12 -12 212.68 13
-8 -12 12 256.67 13.5
8 -12 -12 242.88 13.9
8 -12 12 237.08 12.9
8 12 -12 242.98 13.5
12 -12 -8 250.57 13.9
12 -12 8 214.08 13
12 -8 -12 228.68 13.5
12 -8 12 253.87 12.1
12 -8 12 264.07 12.2
12 8 -12 243.18 13.4
12 12 -8 246.58 13.5
-12 -12 -10 517.65 28.5
-12 -12 10 671.93 29.2
-12 -10 -12 590.94 28.3
-12 -10 12 642.74 29.1
-10 -12 -12 549.65 28.5
-10 -12 12 617.74 29.1
10 -12 -12 573.24 29.2
10 -12 12 577.54 28.4
10 12 -12 606.44 29
12 -12 -10 580.24 29.2
12 -12 10 567.44 28.5
12 -10 -12 629.94 29.3
12 -10 12 581.64 28.1
12 10 -12 588.14 28.9
12 12 -10 609.04 28.8
-12 -12 -12 1246.48 65.49
-12 -12 12 1447.06 66.19
12 -12 -12 1393.96 66.29
12 -12 12 1647.04 65.69
12 12 -12 1348.97 65.99
-13 -1 -1 495.85 23.1
-13 -1 1 490.85 23.3
-13 1 1 480.35 23.3
-1 -13 -1 463.55 23.2
-1 -13 1 457.85 23.2
-1 -1 -13 482.75 22.7
-1 -1 13 482.85 22.9
-1 1 -13 502.15 22.7
1 -13 -1 432.16 23.1
1 -13 1 432.06 23.1
1 -1 -13 488.95 22.9
1 -1 13 495.85 22.8
1 1 -13 473.95 22.8
13 -1 -1 501.15 23.2
13 -1 1 479.35 23.1
13 1 -1 498.15 23.2
13 1 1 502.95 23.1
-13 -1 -3 1010.4 46.5
13 1 -3 986.2 46.7
-13 1 3 985 46.8
-3 -13 -1 999.9 46.8
-1 -13 3 936.61 46.7
-1 -3 -13 976.7 46.3
13 3 1 1002.9 46.6
-13 -3 1 1026 46.8
-3 -1 13 1003.1 46.7
1 -3 13 968.8 46.2
1 3 -13 982.1 46.4
3 -13 1 955.2 46.6
13 -3 -1 1035.5 46.8
13 -1 3 1041.1 46.5
3 -1 -13 1035.6 46.6
-3 1 -13 1059.59 45.9
-3 -13 1 1005 46.8
-13 -1 3 960.4 46.8
13 3 -1 1009.5 46.7
-1 -3 13 1029.6 46.5
3 1 -13 1006.3 46.5
1 -13 3 973.7 46.7
-13 -3 -1 996 46.6
-1 3 -13 1059.69 46.2
-3 -1 -13 984.7 45.9
1 -3 -13 1036.9 46.5
13 1 3 1037.6 46.5
-1 -13 -3 931.01 46.6
13 -1 -3 1016.7 46.8
13 -3 1 1008.4 46.7
-13 -3 3 2630.04 124.59
-13 -3 -3 2807.12 124.39
13 -3 3 2665.83 124.29
13 3 -3 2781.32 124.59
13 3 3 2777.32 124.29
-3 -13 3 2647.44 124.49
-3 -3 -13 2794.72 123.89
-3 -3 13 2769.82 124.49
-3 3 -13 2690.93 123.79
3 -13 3 2532.35 124.49
3 -3 -13 2742.23 124.49
3 -3 13 2880.41 123.89
3 3 -13 2766.42 124.39
13 -3 -3 2723.13 124.69
-3 -13 -3 2662.93 124.59
13 -1 5 778.82 36.3
5 -1 -13 807.52 36.9
13 1 -5 788.02 37
13 -5 -1 791.02 37
-13 -5 1 778.62 36.9
-1 -13 5 690.53 36.8
13 5 1 759.92 36.7
5 13 -1 741.83 36.9
-13 -1 -5 794.82 36.4
1 5 -13 820.52 36.6
-13 1 5 760.62 37
1 -5 13 779.62 36.5
-5 -13 -1 736.03 36.8
-5 -1 13 749.42 36.9
-1 -5 -13 805.42 36.6
-1 5 -13 813.32 36.5
-13 -1 5 748.23 37
-1 -13 -5 723.23 36.7
13 5 -1 804.22 36.9
5 1 -13 760.22 36.7
1 -5 -13 815.92 36.8
-5 -1 -13 874.41 35.6
-13 -5 -1 789.32 36.8
13 -5 1 807.62 36.9
-1 -5 13 792.22 36.7
13 1 5 802.52 36.4
-5 -13 1 768.62 36.9
1 -13 5 805.52 36.9
13 -1 -5 771.42 37
3 5 -13 3195.18 144.59
-5 -3 13 3252.67 144.79
-3 -13 5 3150.28 144.79
-13 -5 3 3024.6 144.79
-3 -5 -13 3361.06 144.29
3 -5 13 3255.37 144.19
-13 -3 -5 3150.58 144.39
13 -3 5 3331.57 144.39
13 5 3 3162.18 144.49
5 13 -3 3104.99 144.79
5 -13 3 2933.41 144.59
13 -5 -3 3161.88 144.79
5 -3 -13 3156.58 144.79
13 3 -5 3201.18 144.79
-5 -13 -3 2973.8 144.69
-5 -13 3 3150.18 144.79
13 -5 3 3272.57 144.69
-13 -5 -3 3122.79 144.59
-3 5 -13 3268.37 144.19
-13 -3 5 3115.19 144.79
3 13 -5 3142.39 144.79
-3 -13 -5 3068.99 144.69
3 -5 -13 3209.48 144.79
3 -13 5 3010 144.69
-3 -5 13 3400.56 144.79
-5 -3 -13 3216.68 143.79
13 3 5 3294.87 144.39
13 -3 -5 3065.49 144.79
13 5 -3 3176.58 144.79
5 3 -13 3195.28 144.69
-5 -5 13 4730.13 206.58
5 -5 -13 4001.3 206.38
5 5 -13 4613.74 206.38
5 13 -5 4454.55 206.48
13 -5 -5 4484.25 206.58
13 -5 5 4664.53 206.18
13 5 -5 4379.16 206.48
13 5 5 4464.15 206.08
5 -13 5 4419.16 206.38
-5 -13 -5 4333.27 206.38
-5 -13 5 4513.25 206.48
-5 -5 -13 4936.71 205.88
-13 -5 5 4630.04 206.58
-13 -5 -5 4814.92 206.18
5 -5 13 4592.94 205.68
7 -1 -13 110.09 7.5
13 7 1 121.09 7.6
13 -7 -1 114.29 7.7
1 -7 13 125.39 7.2
1 7 -13 118.99 7.3
-7 -13 -1 110.19 7.5
-1 -13 7 109.79 7.5
-7 -1 13 108.19 7.7
13 -1 7 122.99 6.4
13 1 -7 120.09 7.8
-13 1 7 110.79 7.9
-13 -7 1 116.29 7.5
7 13 -1 115.89 7.6
-7 -13 1 104.69 7.5
1 -13 7 110.69 7.5
1 -7 -13 119.39 7.8
13 -7 1 115.29 7.7
13 7 -1 106.59 7.4
-1 -7 13 113.49 7.2
-13 -7 -1 119.19 7.6
7 13 1 116.49 7.6
13 -1 -7 118.19 7.6
-1 7 -13 115.69 7
-13 -1 7 124.89 8
1 13 -7 111.09 7.5
13 1 7 120.89 6.5
7 1 -13 114.79 7.5
7 13 -3 478.05 24.5
13 -7 -3 529.95 24.7
-7 -13 -3 491.95 24.4
7 -3 -13 504.35 24.6
13 7 3 501.35 24.3
-13 -3 -7 497.95 23.8
3 -7 13 526.95 24
3 7 -13 521.05 24.4
-13 -7 3 505.45 24.5
13 -3 7 516.75 23.7
-7 -3 13 500.65 24.6
-3 -13 7 486.55 24.4
13 3 -7 507.85 24.6
13 -7 3 503.65 24.4
-13 -7 -3 537.35 24.4
13 -3 -7 481.85 24.5
-3 -13 -7 506.05 24.4
3 -7 -13 497.25 24.5
3 -13 7 409.56 24.2
3 13 -7 513.75 24.5
-3 -7 13 509.75 24.5
-7 -13 3 494.75 24.5
13 3 7 532.45 23.8
7 3 -13 504.25 24.5
-13 -3 7 524.25 24.6
13 7 -3 483.85 24.4
-3 7 -13 518.75 23.9
-7 -5 13 736.03 35.1
13 -7 -5 720.43 35.2
13 5 -7 722.73 35.1
-7 -13 -5 739.53 35
-5 -13 7 719.13 35
7 -5 -13 743.63 35.1
-5 -7 -13 721.73 34.4
13 -5 7 738.83 34.4
-13 -7 5 723.93 35.1
-13 -5 -7 781.82 34.5
7 13 -5 694.83 35
7 -13 5 677.63 34.8
5 7 -13 725.23 34.9
13 7 5 744.13 34.8
5 -7 -13 779.72 35.3
-5 -7 13 730.63 35.1
-7 -5 -13 751.32 34
-7 -13 5 745.53 35.1
-13 -7 -5 734.13 34.8
-13 -5 7 750.72 35.2
13 5 7 744.13 34.5
13 -5 -7 789.32 35.3
13 7 -5 676.53 35
13 -7 5 765.02 34.9
7 5 -13 737.93 35
-5 -13 -7 721.43 35
-7 -5 -13 767.22 34
7 -5 13 758.72 33.7
5 -13 7 720.13 35
5 13 -7 766.52 35.1
-7 -7 13 245.38 13.5
7 -13 7 227.78 13.1
7 13 -7 248.78 13.5
13 -7 -7 253.87 13.7
7 7 -13 238.08 13.4
7 -7 13 255.77 12.3
-7 -7 -13 255.87 12.5
-13 -7 -7 237.18 12.9
13 7 7 262.67 13
-7 -13 -7 244.68 13.3
-7 -13 7 247.88 13.5
13 -7 7 261.77 13
13 7 -7 266.67 13.6
-13 -7 7 264.47 13.5
7 -7 -13 231.58 13.5
13 -9 -1 130.59 8.5
-9 -1 13 132.69 8.5
1 -9 13 129.09 7.9
-13 -9 1 133.69 8.2
13 -1 9 136.19 6.3
13 1 -9 110.09 8.2
-1 -13 9 120.09 8
-9 -13 -1 116.19 8.1
1 9 -13 124.59 7.9
9 13 -1 118.19 8.1
13 9 1 128.19 8.1
9 -1 -13 125.09 8.2
-13 1 9 132.49 8.6
9 13 1 138.29 8.6
13 9 -1 114.19 8
13 1 9 141.49 6.5
-13 -1 9 108.19 8.3
13 -1 -9 123.49 8.2
-1 9 -13 132.49 7.8
-9 -13 1 126.19 8.1
1 -13 9 117.69 8.1
1 13 -9 121.29 8
13 -9 1 126.99 8.4
-1 -9 13 117.09 7.8
-13 -9 -1 122.09 8.1
9 1 -13 126.89 8.2
3 -9 13 214.38 12.4
13 3 -9 253.87 13.1
9 -3 -13 246.18 13
13 9 3 243.68 12.9
-3 -13 9 251.27 13
9 13 -3 204.78 12.5
13 -9 -3 242.98 13.2
13 -3 9 244.28 11.5
-13 -9 3 246.68 13
-9 -13 -3 248.08 12.9
3 9 -13 234.68 12.8
-9 -3 13 249.88 13.2
-13 -3 -9 251.67 11.7
13 -3 -9 233.78 13.1
-3 -13 -9 242.58 12.9
9 3 -13 245.08 12.9
3 -13 9 234.18 12.8
-13 -9 -3 245.38 12.7
13 -9 3 217.58 12.9
13 9 -3 246.18 13
13 3 9 233.58 11.6
-3 -9 13 218.78 12.7
-9 -13 3 242.18 12.9
3 13 -9 239.08 13
-13 -3 9 243.48 13.1
-9 -5 13 181.68 10.3
9 13 -5 176.48 10.1
5 -9 13 163.98 9.3
-13 -5 -9 176.48 9
-13 -9 5 162.78 10
-9 -13 -5 176.08 9.9
9 -5 -13 137.59 10
13 -9 -5 171.18 10.4
13 -5 9 178.98 8.8
-5 -9 -13 168.48 9.5
13 9 5 172.68 9.9
-5 -13 9 171.48 10.1
13 5 -9 163.48 10
5 9 -13 177.08 10
-13 -5 9 170.88 10.2
5 -9 -13 180.28 10.5
-9 -13 5 173.58 9.7
5 13 -9 166.08 10
-9 -5 -13 184.88 8.2
9 5 -13 171.18 9.9
5 -13 9 138.69 9.7
13 -5 -9 160.28 10
13 9 -5 152.28 9.9
-5 -9 13 159.58 10.2
-9 -5 -13 175.28 8.2
-5 -13 -9 156.88 9.9
-13 -9 -5 162.58 9.7
7 9 -13 221.58 12.3
13 -7 9 206.78 11.4
7 -9 13 192.68 11.3
13 9 7 233.48 12
-13 -9 7 225.68 12.3
9 -13 7 186.38 12
-7 -13 9 236.18 12.4
13 -9 -7 224.58 12.5
-9 -7 13 236.28 12.6
13 7 -9 215.28 12.3
-13 -7 -9 219.08 11.5
9 -7 -13 204.88 12.3
-7 -9 -13 215.48 11.6
-9 -13 -7 234.48 12.3
9 13 -7 229.68 12
-9 -13 7 235.58 12.3
-7 -13 -9 269.07 12.5
7 -13 9 198.88 11.9
7 -9 -13 210.68 12.5
13 -7 -9 225.48 12.4
-13 -9 -7 208.68 11.9
-9 -7 -13 223.78 11.1
9 -7 13 230.78 10.8
9 7 -13 219.98 12.3
-13 -7 9 225.38 12.4
7 13 -9 212.58 12.2
13 9 -7 229.28 12.4
-7 -9 13 208.98 12.3
9 -9 13 159.58 8.7
9 9 -13 162.78 9.9
9 -9 -13 158.18 10.1
13 -9 -9 155.98 10.2
13 -9 9 165.58 9.5
13 9 -9 161.98 9.8
-13 -9 -9 154.68 9.3
-13 -9 9 173.98 9.9
-9 -13 -9 145.19 9.5
-9 -13 9 171.18 9.8
-9 -9 -13 158.68 8.9
9 -13 9 135.99 9.6
9 13 -9 156.58 9.8
13 -9 9 155.88 9.1
-9 -9 13 167.28 10
13 11 1 87.49 7.1
-11 -1 13 110.49 7.5
11 13 -1 114.89 7.4
-13 1 11 114.79 7.7
-1 -13 11 71.29 6.6
11 -1 -13 96.59 7.2
1 11 -13 96.29 7
-13 -11 1 88.29 7.1
13 1 -11 100.19 7.5
1 -11 13 89.29 6.8
-11 -13 -1 95.29 7.1
-11 -13 1 104.09 7.3
1 13 -11 95.89 7
-1 -11 13 96.59 7.2
-13 -11 -1 95.59 7.1
-13 -1 11 103.79 7.7
11 13 1 90.09 7.1
13 11 -1 105.69 7.4
13 -1 -11 101.09 7.2
-1 11 -13 100.89 7
1 -13 11 81.89 6.7
11 1 -13 113.59 7.7
11 -3 -13 2258.37 107.39
-11 -13 -3 2487.15 107.39
-3 -13 11 2370.56 107.39
13 11 3 2263.17 107.29
-13 -11 3 2410.26 107.39
-11 -3 13 2420.26 107.59
3 11 -13 2264.47 107.29
11 13 -3 2366.66 107.39
3 -11 13 2287.67 107.09
13 3 -11 2381.26 107.39
13 -11 -3 2481.75 107.69
11 13 3 2244.98 107.29
-3 -13 -11 2295.47 107.19
-11 -13 3 2534.15 107.49
13 11 -3 2308.77 107.39
-13 -3 11 2401.26 107.49
3 -13 11 2142.89 107.09
13 -3 -11 2366.86 107.39
-3 -11 13 2309.47 107.29
3 13 -11 2216.48 107.29
11 3 -13 2347.36 107.39
-13 -11 -3 2279.87 107.29
-11 -13 -5 2147.79 99.39
13 -5 11 2395.36 97.99
13 5 -11 2259.47 99.49
5 11 -13 2123.59 99.39
13 -5 11 2249.38 97.99
5 -11 13 2071.89 98.99
13 -11 -5 2275.47 99.79
11 -5 -13 2352.56 99.79
-5 -11 -13 2030 99.09
-5 -13 11 2233.88 99.59
-11 -5 13 2188.08 99.59
-13 -11 5 2318.27 99.69
13 11 5 1902.11 99.19
-13 -5 -11 2254.27 98.39
11 13 -5 2141.89 99.49
13 -5 -11 2125.09 99.59
-13 -11 -5 1671.63 98.99
13 11 -5 2263.07 99.49
-5 -13 -11 2152.58 99.29
-11 -13 5 2287.57 99.59
-5 -11 13 2178.38 99.49
11 5 -13 2163.18 99.49
5 -13 11 1815.22 98.99
5 13 -11 2189.58 99.49
-13 -5 11 2262.07 99.69
-13 -7 -11 436.36 19.6
7 11 -13 401.36 20.5
-7 -11 -13 388.56 20.2
13 -11 -7 421.46 20.9
13 -7 11 420.86 19.4
11 -7 -13 383.56 20.6
-11 -7 13 444.16 20.9
11 13 -7 417.06 20.6
-7 -13 11 417.96 20.6
13 -7 11 426.96 19.3
13 7 -11 414.66 20.6
-13 -11 7 427.96 20.7
7 -11 13 430.76 20.1
-11 -13 -7 384.16 20.3
11 -13 7 410.26 20.4
7 13 -11 400.76 20.5
-11 -13 7 412.86 20.6
13 -7 -11 409.46 20.7
-7 -11 13 409.16 20.6
7 -11 -13 428.66 21
7 -13 11 350.26 20.1
-11 -7 -13 427.16 19.3
-13 -7 11 386.26 20.7
-7 -13 -11 359.96 20.2
11 7 -13 388.16 20.5
-13 -11 -7 356.06 20.2
11 -7 13 419.26 18.9
13 11 -7 427.36 20.6
11 -7 13 386.16 18.8
13 9 -11 258.57 14.1
13 -9 11 272.97 13.2
13 -9 11 253.17 13.3
-13 -9 -11 266.57 13.4
13 -11 -9 237.68 14.3
-11 -13 -9 213.48 13.8
-11 -9 13 252.37 14.3
-9 -11 -13 257.67 13.6
11 -9 -13 275.57 14.5
-13 -11 9 263.87 14.1
9 -11 13 255.87 13.4
9 11 -13 246.08 14
-9 -13 11 263.97 14.2
11 -13 9 277.87 14
11 13 -9 256.97 14.1
11 -13 -9 264.87 14.5
-13 -11 -9 210.68 13.6
9 -11 -13 259.87 14.5
-11 -9 -13 254.57 13.2
-11 -13 9 255.47 14.1
-9 -13 -11 231.18 13.9
13 -9 -11 281.67 14.1
9 -13 11 233.48 13.7
9 13 -11 305.77 14.3
-9 -11 13 252.37 14.2
11 -9 13 263.67 12.8
11 9 -13 264.87 14.2
-13 -9 11 255.37 14.2
13 -11 9 248.78 13.6
13 11 -9 252.07 14.1
-13 -11 -11 916.31 43.8
-13 -11 11 912.21 44.3
-11 -13 -11 838.02 43.9
-11 -13 11 959.7 44.3
-11 -11 -13 908.61 43.7
-11 -11 13 946.31 44.4
11 -13 -11 931.61 44.5
11 -13 11 908.61 43.8
11 -11 -13 970.3 44.5
11 -11 13 952.2 43.5
11 11 -13 954.5 44.2
11 13 -11 945.01 44.2
13 -11 -11 945.01 44.4
13 -11 11 964.2 43.7
13 11 -11 924.91 44.2
-13 -13 -1 214.58 11.7
-13 -13 1 201.58 11.5
-13 -1 13 212.98 11.9
-1 -13 13 190.68 11.6
1 -13 13 171.58 11.2
1 13 -13 174.48 11.2
13 -1 -13 204.48 11.7
13 1 -13 198.48 11.5
13 13 -1 201.28 11.6
13 13 1 204.38 11.7
-13 -13 -3 2260.17 100.69
-13 -13 3 2286.47 100.69
-13 -3 13 2244.18 100.79
-3 -13 -13 2053.39 100.39
-3 -13 13 2268.17 100.69
3 -13 13 2038.6 100.39
3 13 -13 2295.37 100.69
13 -3 -13 2194.48 100.69
13 3 -13 2150.38 100.59
13 13 -3 2223.98 100.69
13 13 3 2037.9 100.59
-13 -13 -5 2219.58 105.59
-13 -13 5 2402.96 105.79
-13 -5 13 2427.56 105.99
-5 -13 -13 2005.3 105.29
-5 -13 13 2383.86 105.79
5 -13 13 2023 105.29
5 13 -13 2370.86 105.79
13 -5 -13 2393.46 105.89
13 5 -13 2425.46 105.79
13 13 -5 2348.76 105.79
-13 -13 -7 372.96 20
-13 -13 7 413.26 20.2
-13 -7 -13 422.76 18.7
-13 -7 13 401.76 20.4
-7 -13 -13 297.07 19.6
-7 -13 13 415.16 20.3
7 -13 13 376.76 19.7
7 13 -13 389.56 20.1
13 -13 -7 420.76 20.6
13 -7 -13 393.46 20.3
13 7 -13 399.06 20.1
13 13 -7 415.96 20.2
-13 -13 -9 330.77 18.7
-13 -13 9 369.66 19
-13 -9 -13 369.26 17.9
-13 -9 13 357.66 19.1
-9 -13 -13 294.37 18.4
-9 -13 13 391.76 19.1
9 -13 -13 378.66 19.4
9 -13 13 357.56 18.5
9 13 -13 352.16 18.8
13 -13 -9 378.46 19.2
13 -13 9 361.96 18.7
13 -9 -13 365.56 19
13 -9 13 388.36 17.5
13 -9 13 374.76 17.6
13 9 -13 362.86 18.9
13 13 -9 360.56 18.9
-13 -13 -11 1612.54 77.59
-13 -13 11 1725.63 77.99
-13 -11 -13 1738.73 77.39
-13 -11 13 1694.73 77.99
-11 -13 -13 1594.74 77.49
-11 -13 13 1729.73 78.09
11 -13 -13 1736.83 78.19
11 -13 13 1537.15 77.29
11 13 -13 1664.13 77.89
13 -13 -11 1687.23 78.09
13 -13 11 1677.23 77.59
13 -11 -13 1640.24 78.09
13 -11 13 1846.72 77.19
13 11 -13 1614.74 77.79
13 13 -11 1662.03 77.89
-13 -13 -13 1522.25 70.79
-13 -13 13 1618.04 71.29
13 -13 -13 1560.84 71.29
13 -13 13 1464.35 70.49
13 13 -13 1458.05 70.89
-14 0 0 2433.36 117.39
0 -14 0 2564.64 117.49
0 0 -14 2638.54 117.09
14 0 0 2636.64 117.49
-14 0 -2 40.7 4.1
-14 0 2 28.9 4
-2 -14 0 40.5 4.4
0 -2 -14 37.3 3.5
0 -2 14 36.3 3.6
0 2 -14 37.9 3.4
2 -14 0 30.7 4
14 0 -2 35.1 4.1
14 0 2 40.5 3.8
14 -2 0 34.6 4.1
14 2 0 38.8 4
2 0 -14 35 3.6
0 -14 2 36.7 4.3
-14 -2 0 39.5 4.2
-2 0 -14 41.2 3.1
0 -14 -2 36.4 3.9
14 -2 2 84.09 5.9
14 -2 -2 78.49 5.9
2 -14 -2 65.19 5.6
2 -14 2 73.49 5.8
2 -2 -14 70.69 5.4
-14 -2 2 74.39 6
-2 -14 -2 77.59 5.8
-2 -14 2 78.69 5.9
-2 2 -14 71.29 4.9
2 -2 14 78.89 5.1
2 2 -14 77.19 5.5
-14 -2 -2 75.09 5.8
-2 -2 -14 73.69 5
-2 -2 14 88.49 6.1
14 2 -2 72.09 5.8
14 2 2 73.99 5.4
0 -4 -14 477.75 23.3
-4 0 -14 518.05 22.5
4 0 -14 452.95 23.4
14 -4 0 478.95 23.7
14 4 0 475.55 23.5
14 0 4 506.45 23.3
-14 -4 0 490.35 23.6
-4 0 14 467.45 23.6
0 4 -14 558.24 23.4
14 0 -4 460.45 23.6
0 -14 4 472.65 23.6
-14 0 4 465.35 23.8
-4 -14 0 455.15 23.6
0 -14 -4 489.75 23.6
0 -4 14 511.75 23.4
-4 -14 -2 1068.49 48.7
14 2 -4 967.6 48.6
-14 -4 2 1006.2 48.7
14 -2 4 1064.09 48.3
14 -4 -2 1037.9 48.7
2 -4 14 1007.9 48.1
-14 -2 -4 1022.1 48.4
14 4 2 1034.3 48.5
-2 -4 -14 1060.29 48.2
2 4 -14 1022.1 48.4
-4 -2 14 985.6 48.6
-4 2 -14 1080.69 47.7
4 -14 2 1051.39 48.6
-2 -14 4 1095.29 48.8
4 -2 -14 1044.2 48.6
14 -2 -4 1000.1 48.7
4 2 -14 1058.29 48.5
14 2 4 1064.19 48.3
-4 -2 -14 1145.39 47.8
14 4 -2 1038.1 48.6
-14 -2 4 977.6 48.7
-2 -14 -4 1008.3 48.6
-4 -14 2 1020.6 48.7
2 -14 4 1014.1 48.7
-2 -4 14 1045.7 48.5
-2 4 -14 1056.59 48.1
2 -4 -14 1062.99 48.5
14 -4 2 1031.9 48.5
-14 -4 -2 1144.69 48.7
-4 -4 -14 2573.84 111.69
-14 -4 -4 2524.25 112.19
-14 -4 4 2520.55 112.49
-4 -14 -4 2500.65 112.39
-4 -14 4 2482.65 112.39
14 4 -4 2488.05 112.39
14 4 4 2518.85 112.09
4 4 -14 2313.67 112.19
14 -4 4 2216.78 111.99
14 -4 -4 2455.75 112.49
4 14 -4 2458.45 112.39
4 -4 14 2333.47 111.49
4 -4 -14 2398.76 112.29
4 -14 4 2534.75 112.39
-4 4 -14 2466.25 111.49
-4 -4 14 2464.85 112.39
-6 0 14 96.09 7.2
-14 -6 0 96.19 7
14 -6 0 103.89 7.1
6 0 -14 91.39 6.9
0 -6 14 108.89 6.8
14 0 6 105.49 6.1
14 0 -6 92.69 6.9
-14 0 6 97.69 7.2
-6 -14 0 88.49 6.8
0 6 -14 99.49 6.5
0 -6 -14 96.39 6.6
0 -14 6 99.49 7.1
14 6 0 103.69 6.9
-2 -14 6 68.89 5.7
14 -6 -2 65.79 6
6 14 -2 69.09 5.6
2 6 -14 74.09 5.5
14 -2 6 70.19 5
14 2 -6 73.69 5.9
-6 -14 -2 76.79 5.9
-6 -2 14 84.59 6.4
6 -2 -14 73.59 5.9
-14 -6 2 77.39 6
14 6 2 77.59 5.8
-2 -6 -14 76.79 5.5
2 -6 14 70.19 5.2
-14 -2 -6 85.39 5.4
-14 -6 -2 79.99 5.9
14 2 6 85.19 5.2
2 -14 6 68.19 5.7
-6 -14 2 80.09 6.2
14 -2 -6 69.29 6
6 2 -14 71.89 5.8
-2 6 -14 78.59 5.2
14 -6 2 68.79 5.8
-14 -2 6 74.69 6.1
-2 -14 -6 78.19 5.9
-2 -6 14 80.99 5.9
2 -6 -14 68.89 5.7
14 6 -2 70.19 5.8
-4 -14 6 965 45.7
6 -4 -14 983.1 45.8
6 -14 4 1001.4 45.7
4 -6 14 1004.9 45
-6 -4 14 956.3 45.7
6 14 -4 910.41 45.7
-4 -6 -14 1010.6 45.2
14 -6 -4 1016.8 45.9
4 6 -14 968.8 45.6
14 6 4 1005.8 45.5
-14 -6 4 1023.9 45.9
-14 -4 -6 882.21 45.2
-6 -14 -4 1003.8 45.8
14 -4 6 944.11 45.2
14 4 -6 930.81 45.7
-6 -4 -14 1070.79 44.6
14 6 -4 936.71 45.7
-14 -4 6 1000.2 45.9
-4 -6 14 944.91 45.7
4 -6 -14 986 45.8
-4 -14 -6 982 45.7
14 4 6 952.5 45.2
-14 -6 -4 964 45.5
-6 -4 -14 1007.4 44.6
-6 -14 4 966.9 45.7
14 -6 4 1029.7 45.6
6 4 -14 934.61 45.6
-4 6 -14 974.8 45
4 14 -6 928.31 45.7
14 -4 -6 944.71 45.8
4 -14 6 978.7 45.7
6 -6 -14 86.49 6.8
-14 -6 6 100.29 7.2
14 -6 6 98.29 6.3
-6 -14 6 81.79 6.7
-14 -6 -6 81.79 6.1
-6 -14 -6 99.19 7
14 6 -6 87.09 6.6
14 6 6 89.09 6.2
6 14 -6 78.29 6.6
14 -6 -6 91.09 6.9
6 6 -14 95.39 6.8
6 -6 14 85.39 5.3
-6 -6 -14 84.19 5.5
-6 -6 -14 96.39 5.8
-6 -6 14 96.39 7
6 -14 6 97.29 6.8
-8 -14 0 369.36 18
14 0 -8 342.67 18
8 14 0 352.56 18
14 -8 0 338.07 18.1
14 8 0 344.27 17.9
-14 0 8 359.76 18.2
8 0 -14 349.67 18
-14 -8 0 409.16 18.2
14 0 8 358.26 16.9
0 -14 8 357.86 18
-8 0 14 346.47 18.2
0 8 -14 345.77 17.6
0 -8 -14 330.27 17.9
0 -8 14 361.06 17.8
14 2 -8 79.49 6.2
-2 -14 8 74.69 6.1
-14 -8 2 65.49 5.9
-8 -14 -2 64.09 5.7
8 14 -2 83.99 6.3
14 8 2 65.99 5.7
2 8 -14 72.89 5.7
14 -2 8 74.39 4.7
-8 -2 14 61.79 5.9
2 -8 14 67.99 5.3
8 -2 -14 64.19 5.9
14 -8 -2 80.59 6.2
2 14 -8 65.89 5.9
-8 -14 2 81.59 6.3
-14 -8 -2 71.59 5.9
-14 -2 8 65.69 6.2
14 -2 -8 74.39 6.1
-2 -14 -8 61.79 5.6
8 2 -14 63.99 5.8
14 2 8 77.19 4.8
14 -8 2 71.69 6.2
14 8 -2 78.79 6.1
-2 -8 14 67.99 5.8
2 -14 8 83.49 6.1
2 -8 -14 58.09 5.7
-2 8 -14 68.29 5.3
-8 -14 -4 79.89 6.4
14 4 -8 77.39 6.4
8 -4 -14 78.89 6.5
8 -14 4 73.89 6.2
14 -8 -4 72.99 6.5
4 -8 14 85.89 5.7
14 -4 8 86.49 5.4
-4 -14 8 83.69 6.2
-8 -4 14 72.59 6.3
-14 -8 4 82.79 6.6
-14 -4 -8 94.99 5.6
4 8 -14 78.19 6
14 8 4 79.09 6.1
8 14 -4 80.19 6.4
14 8 -4 81.89 6.3
4 14 -8 84.89 6.3
14 -8 4 75.29 6.2
-14 -4 8 75.59 6.4
-8 -14 4 88.09 6.4
4 -8 -14 74.39 6.5
-14 -8 -4 80.59 6.1
14 4 8 87.59 5.4
8 4 -14 60.59 5.9
-4 -14 -8 79.69 6.3
4 -14 8 75.09 6.2
-4 -8 14 67.39 6.1
14 -4 -8 68.09 6.2
-14 -6 -8 326.97 17
14 8 6 334.67 17.4
-8 -6 14 350.96 17.9
6 -8 14 372.36 16.9
6 8 -14 326.97 17.6
8 -6 -14 353.46 17.9
8 14 -6 361.86 17.8
-6 -14 8 360.16 17.8
-8 -14 -6 331.67 17.6
-14 -8 6 345.27 17.8
14 -8 -6 349.87 18
14 -6 8 366.76 17
-6 -8 -14 353.86 17
8 -14 6 306.37 17.4
14 6 -8 367.06 17.8
6 14 -8 372.36 17.8
-8 -14 6 359.76 17.8
8 -6 14 355.36 16
-14 -6 8 356.66 17.9
6 -14 8 287.37 17.5
-6 -8 14 350.56 17.9
-14 -8 -6 328.67 17.3
14 -6 -8 358.26 17.9
14 6 8 374.36 17.1
14 -8 6 356.36 17.6
6 -8 -14 348.07 17.9
-6 -14 -8 244.38 17.3
8 6 -14 371.56 17.8
-8 -6 -14 358.66 16.4
14 8 -6 347.37 17.8
8 14 -8 1012.9 46.5
14 -8 -8 981.9 46.6
-8 -14 -8 929.21 46.3
14 -8 8 1035 46
-14 -8 -8 1007.9 46
-14 -8 8 1031.8 46.6
14 8 -8 966.6 46.4
14 8 8 962.3 46
-8 -8 -14 1028.4 45.7
8 -14 8 906.41 46.3
8 -8 -14 960.2 46.6
8 -8 14 1015.4 45.4
8 8 -14 953.1 46.4
-8 -14 8 1006.5 46.5
-8 -8 14 986.3 46.6
14 -10 0 218.08 12.5
10 14 0 237.38 12.3
14 0 -10 212.18 12.2
0 -14 10 216.98 12
-10 -14 0 224.98 12.1
14 10 0 210.38 12
10 0 -14 217.68 12.1
0 10 -14 220.68 11.9
-14 0 10 206.08 12.2
-10 0 14 209.68 12.4
-14 -10 0 213.78 12
0 -10 14 190.08 11.8
-10 -2 14 65.49 6.2
-14 -10 2 68.19 6
2 -10 14 62.29 5.4
14 -10 -2 68.29 6.1
14 2 -10 62.69 5.8
2 10 -14 52.29 5.3
14 -2 10 73.99 3.3
10 -2 -14 67.39 6.1
-2 -14 10 62.29 5.7
10 14 -2 67.29 5.8
14 10 2 57.49 5.7
-10 -14 -2 49.1 5.8
2 -14 10 61.29 5.7
10 14 2 51.99 5.7
-10 -14 2 74.59 6
-14 -10 -2 67.89 5.9
10 2 -14 69.19 6
-2 -10 14 54.59 5.5
-2 -14 -10 55.69 5.5
14 10 -2 61.79 5.7
14 -10 2 60.49 6
2 14 -10 71.99 6
-2 10 -14 54.29 5
-14 -2 10 66.79 6
14 -2 -10 61.39 6.1
-14 -4 -10 399.76 18
-14 -10 4 392.66 19.4
14 -10 -4 393.16 19.6
-10 -4 14 413.96 19.6
-4 -14 10 399.06 19.4
10 14 -4 366.76 19.2
14 -4 10 402.66 17.7
10 -4 -14 392.46 19.4
14 10 4 333.77 19
4 10 -14 356.26 19.1
-10 -14 -4 384.26 19.2
4 -10 14 357.66 18.7
14 4 -10 388.06 19.3
-4 -14 -10 360.26 19.1
-4 -10 14 364.66 19.2
14 -10 4 366.36 19.4
-14 -4 10 407.96 19.5
4 -14 10 316.27 19
4 14 -10 393.06 19.3
-14 -10 -4 373.66 19
10 4 -14 378.96 19.2
14 -4 -10 374.36 19.3
14 10 -4 379.56 19.2
4 -10 -14 372.76 19.5
-10 -14 4 385.96 19.2
-14 -6 -10 4.5 2.5
-10 -14 -6 5.5 3.5
10 -6 -14 2.6 3.4
14 -6 10 5.1 2.1
-6 -10 -14 3.9 3
14 -6 10 6.7 2.3
6 -10 14 4.3 2.9
10 14 -6 2.2 3.8
-14 -10 6 4.5 3.7
-10 -6 14 7.1 3.9
-6 -14 10 4.3 3.7
10 -14 6 5.7 3.5
6 10 -14 3.9 3.5
14 6 -10 5.5 3.4
14 10 6 6.2 3.4
14 -10 -6 3.1 3.9
14 -6 -10 6.2 3.8
6 -10 -14 4.2 4
6 -14 10 5.5 3.6
6 14 -10 5.8 3.6
-14 -10 -6 1.4 3.2
-14 -6 10 5 3.6
-10 -6 -14 4.7 1.5
14 -10 6 3.5 3.9
-6 -10 14 2.9 3.6
-10 -14 6 1.9 3.4
10 6 -14 4.9 3.4
-6 -14 -10 5.9 3.5
-10 -6 -14 3.2 1.6
14 10 -6 0.4 3.6
10 -8 -14 99.69 7.6
-10 -8 14 109.69 7.8
8 -10 14 98.49 6.4
14 8 -10 103.09 7.5
14 -8 10 113.39 6.8
-14 -8 -10 109.09 6.9
10 14 -8 99.59 7.4
14 -10 -8 117.79 8.2
8 10 -14 100.79 7.5
-10 -14 -8 96.69 7.4
-8 -14 10 105.09 7.7
-8 -10 -14 103.99 6.8
10 -14 8 61.59 6.6
14 -8 10 97.59 6.5
-14 -10 8 106.89 7.4
-8 -10 14 106.69 8
8 -14 10 66.69 6.8
-14 -10 -8 79.59 6.8
10 8 -14 104.49 7.7
8 14 -10 107.79 7.7
-8 -14 -10 76.19 7
8 -10 -14 93.29 7.9
14 -10 8 106.89 7.4
-10 -14 8 110.69 7.9
-10 -8 -14 105.19 6.3
10 -8 14 98.19 5.6
-14 -8 10 112.79 7.9
14 10 -8 95.19 7.5
14 -8 -10 93.89 7.7
-14 -10 10 9.4 4.2
-10 -14 10 9.5 4.1
-10 -10 14 5.7 4
10 -14 10 6.4 3.8
14 -10 -10 2.9 3.9
10 -10 -14 6.6 4.2
-10 -14 -10 5.9 4
10 10 -14 6.2 4
10 14 -10 4.7 4.1
14 -10 10 6.7 3.8
14 10 -10 4.2 3.9
10 -10 14 3.7 2.7
14 -10 10 6 3.3
-10 -10 -14 6.4 3.2
-14 -10 -10 6.4 3.5
-14 0 12 66.69 6.1
12 0 -14 50.79 5.7
14 0 -12 66.99 5.8
-12 0 14 58.69 6
0 -14 12 49.99 5.5
14 12 0 55.69 5.7
-14 -12 0 52.49 5.4
-12 -14 0 48.1 5.5
0 -12 14 43.9 5.2
0 12 -14 48.1 5.3
12 14 0 58.39 5.7
-14 -12 2 907.61 41.5
-12 -2 14 899.61 41.7
-2 -14 12 905.11 41.5
2 12 -14 812.42 41.3
-12 -14 -2 904.81 41.5
12 -2 -14 905.71 41.6
2 -12 14 726.13 41
14 -12 -2 908.11 41.8
14 2 -12 866.41 41.4
14 12 2 835.62 41.4
12 14 -2 879.01 41.4
2 -14 12 779.32 41.1
12 2 -14 885.01 41.5
14 -2 -12 894.41 41.5
14 12 -2 874.81 41.5
12 14 2 872.51 41.5
2 14 -12 884.11 41.4
-14 -12 -2 929.51 41.6
-12 -14 2 913.51 41.5
-2 -12 14 859.81 41.4
-14 -2 12 914.01 41.7
4 -12 14 2375.26 120.89
-4 -12 -14 2282.07 120.89
14 4 -12 2678.73 121.29
12 14 -4 2660.03 121.29
-4 -14 12 2713.63 121.29
14 -12 -4 2765.22 121.59
-14 -12 4 2845.62 121.49
-12 -4 14 2761.92 121.49
14 12 4 2280.17 120.99
-12 -14 -4 2718.93 121.29
12 -4 -14 2753.32 121.39
4 12 -14 2613.84 121.19
-4 -12 14 2721.03 121.39
4 14 -12 2659.83 121.29
-14 -12 -4 2691.83 121.29
14 -4 -12 2731.13 121.39
4 -14 12 2392.36 120.99
14 12 -4 2749.12 121.39
-14 -4 12 2827.12 121.59
12 4 -14 2570.84 121.19
-12 -14 4 2738.73 121.39
-14 -6 -12 983.2 42.8
14 6 -12 917.91 44
6 12 -14 949.8 44.1
12 14 -6 974.8 44.2
-12 -14 -6 939.11 44
-14 -12 6 991.6 44.3
-12 -6 14 1012.5 44.3
12 -6 -14 905.71 44.2
-6 -14 12 961 44.2
6 -12 14 924.51 43.6
14 -12 -6 977.2 44.4
-6 -12 -14 825.02 43.6
14 12 6 778.72 43.7
-6 -14 -12 853.61 43.8
6 -12 -14 949.8 44.4
14 -6 -12 990.6 44.3
-14 -6 12 970.2 44.2
-14 -12 -6 825.82 43.8
-12 -14 6 969.9 44.2
14 12 -6 948.21 44.1
-6 -12 14 959 44.2
6 14 -12 920.81 44.1
6 -14 12 871.21 43.8
12 6 -14 945.01 44.1
14 -8 12 222.38 11
-14 -12 8 225.68 12.6
14 8 -12 204.98 12.4
-8 -12 -14 220.18 12.2
12 -8 -14 215.88 12.7
-12 -8 14 229.08 12.9
8 -12 14 206.48 11.9
8 12 -14 218.48 12.5
12 -14 8 189.18 12.1
12 14 -8 219.58 12.5
14 -12 -8 227.88 13
14 -8 12 214.88 10.9
-14 -8 -12 227.68 11.5
-8 -14 12 223.38 12.5
-12 -14 -8 201.28 12.3
-12 -14 8 230.78 12.6
12 -8 14 218.28 10.1
8 14 -12 218.88 12.5
14 -8 -12 205.58 12.7
-14 -12 -8 192.18 12.2
12 -8 14 224.18 10.2
-12 -8 -14 198.18 11
8 -12 -14 217.38 13
-8 -14 -12 198.18 12.4
-14 -8 12 219.38 12.7
8 -14 12 223.78 12.4
12 8 -14 217.08 12.5
-8 -12 14 219.08 12.7
14 12 -8 204.08 12.4
-14 -12 10 595.04 29.3
-10 -12 -14 573.94 28.7
-12 -14 -10 563.74 29
-12 -10 14 608.84 29.4
10 -12 14 621.44 28.6
10 12 -14 592.04 29.2
10 -14 -12 600.64 29.6
12 -14 10 566.84 29
12 14 -10 591.04 29.1
12 -10 -14 602.34 29.5
14 -10 12 625.94 28.3
14 -10 12 616.64 28.5
14 10 -12 587.44 29.2
-14 -10 -12 588.04 28.5
-10 -14 12 603.64 29.3
14 -12 -10 601.64 29.4
-14 -12 -10 596.74 28.9
-14 -10 12 602.74 29.3
-12 -10 -14 607.44 28.4
10 -12 -14 607.64 29.5
-10 -14 -12 545.95 29
-12 -14 10 582.94 29.1
12 -14 -10 588.14 29.5
10 -14 12 566.94 28.9
10 14 -12 600.64 29.2
14 -10 -12 580.44 29.4
12 -10 14 587.64 28
12 10 -14 578.94 29.1
-10 -12 14 627.84 29.4
14 -12 10 612.84 28.8
14 12 -10 585.44 29.1
-14 -12 -12 1536.85 74.59
-14 -12 12 1664.83 75.09
-12 -14 -12 1564.54 74.69
-12 -14 12 1684.13 75.09
-12 -12 -14 1597.84 74.49
-12 -12 14 1682.63 75.19
12 -14 -12 1586.54 75.19
12 -14 12 1686.53 74.69
12 -12 -14 1710.23 75.39
12 -12 14 1525.35 74.19
12 12 -14 1601.04 74.89
12 14 -12 1603.04 74.99
14 -12 -12 1565.54 75.09
14 12 -12 1566.74 74.89
-14 -14 0 36.1 5.1
-14 0 14 29.2 5.1
0 -14 14 31.2 5
0 14 -14 35.9 5
14 0 -14 34.5 5.1
14 14 0 40.5 5.3
-14 -14 -2 165.48 10.7
-14 -14 2 180.78 10.7
-14 -2 14 174.88 11
-2 -14 14 161.88 10.8
2 -14 14 160.88 10.6
2 14 -14 160.48 10.6
14 -2 -14 169.08 10.7
14 2 -14 165.88 10.5
14 14 -2 180.88 11
14 14 2 165.48 10.6
-14 -14 -4 863.61 42
-14 -14 4 920.61 42.1
-14 -4 14 900.71 42.3
-4 -14 -14 790.92 41.8
-4 -14 14 906.61 42.2
4 -14 14 851.31 41.9
4 14 -14 937.61 42.2
14 -4 -14 909.21 42.2
14 4 -14 872.01 42.1
14 14 -4 933.61 42.2
14 14 4 845.62 42.1
-14 -14 -6 151.68 10.2
-14 -14 6 154.18 10.3
-14 -6 14 157.68 10.5
-6 -14 -14 148.89 10.2
-6 -14 14 174.18 10.6
6 -14 14 153.28 10
6 14 -14 152.58 10.2
14 -14 -6 195.08 11.6
14 -6 -14 152.78 10.3
14 6 -14 165.78 10.6
14 14 -6 137.69 10.2
-14 -14 -8 -0.9 4.4
-14 -14 8 0.8 3.9
-14 -8 -14 1.4 2.6
-14 -8 14 -0.3 4.2
-8 -14 -14 2.5 4.2
-8 -14 14 1.6 4.2
8 -14 -14 1.8 4.8
8 -14 14 13 4.2
8 14 -14 4.1 4.1
14 -14 -8 6.2 4.4
14 -14 8 1.9 4.1
14 -8 -14 3.7 4.5
14 8 -14 1.6 4.1
14 14 -8 0.7 4
-14 -14 -10 143.79 10
-14 -14 10 154.08 10.3
-14 -10 -14 158.98 9.6
-14 -10 14 161.88 10.9
-10 -14 -14 150.28 10.2
-10 -14 14 154.68 10.6
10 -14 -14 173.48 11.2
10 -14 14 127.39 9.5
10 14 -14 157.98 10.5
14 -14 -10 168.18 11.2
14 -14 10 148.49 10.2
14 -10 -14 150.18 10.6
14 -10 14 135.29 8.6
14 -10 14 152.98 8.8
14 10 -14 159.48 10.5
14 14 -10 171.28 10.6
-14 -14 -12 941.61 44.8
-14 -14 12 913.71 45
-14 -12 -14 958.4 44.6
-14 -12 14 930.51 45.1
-12 -14 -14 911.81 44.7
-12 -14 14 965.6 45.1
12 -14 -14 978.3 45.3
12 -14 14 918.31 44.5
12 14 -14 946.91 44.9
14 -14 -12 944.91 45.2
14 -14 12 1005.3 44.8
14 -12 -14 936.41 45.2
14 -12 14 909.91 44
14 -12 14 918.81 44.3
14 12 -14 952.6 45
14 14 -12 936.81 44.9
-14 -14 -14 134.29 10.5
-14 -14 14 175.28 11.3
14 -14 -14 165.18 11.5
14 -14 14 149.19 10.3
14 14 -14 171.08 11.3
-15 -1 -1 1809.92 85.69
-15 -1 1 1805.82 85.79
-1 -15 -1 1772.12 85.79
-1 -15 1 1922.71 85.89
-1 -1 -15 1891.31 85.29
-1 -1 15 1850.11 85.59
-1 1 -15 1757.42 85.19
1 -15 -1 1775.42 85.79
1 -15 1 1920.51 85.89
1 -1 -15 2007.5 85.59
1 1 -15 1872.01 85.49
15 -1 -1 1931.21 85.89
15 -1 1 1872.31 85.69
15 1 -1 1902.01 85.79
15 1 1 1893.61 85.69
-15 -1 -3 9.1 3.1
15 3 1 3.7 2.9
-15 1 3 10.6 3.5
-3 -15 -1 5.8 3.1
-3 1 -15 7.6 1.9
-1 -3 -15 8.6 2.6
-1 -15 3 6.9 3
15 -3 -1 5.7 3.1
15 -1 3 7.2 2.7
1 -3 15 6.7 2.6
1 3 -15 6.4 2.6
1 -15 -3 10 3.3
3 -15 1 6.6 3.1
3 -1 -15 6.3 2.9
-3 -1 15 8.2 3.2
15 1 -3 7.3 3.3
-15 -3 1 7.1 3.2
-15 -3 -1 5.8 3
15 1 3 8.8 2.9
-3 -1 -15 8.2 1.9
1 -3 -15 6.6 2.8
-3 -15 1 8.2 3.2
-1 -15 -3 8.4 3.3
-1 -3 15 7.3 3
3 -15 -1 4.3 3
1 -15 3 6.9 3.3
15 -1 -3 5.9 3
3 1 -15 6.6 2.8
-1 3 -15 8.3 2.5
15 -3 1 6.2 3.1
15 3 -1 8.9 3.2
-15 -1 3 6.7 3.4
-15 -3 -3 202.18 11.3
-15 -3 3 262.47 11.8
-3 -15 -3 206.18 11.5
-3 -15 3 218.28 11.5
-3 -3 -15 201.28 10.5
-3 -3 15 173.68 11.3
15 -3 -3 214.08 11.6
15 -3 3 214.68 11.3
15 3 -3 205.28 11.5
15 3 3 221.78 11.3
3 -3 15 216.38 10.5
3 3 -15 188.28 11
3 -3 -15 214.68 11.3
-3 3 -15 184.38 10.3
3 -15 3 197.78 11.4
5 -15 1 46.9 4.7
15 5 1 39.9 4.4
-1 -5 -15 37.6 3.8
-15 -1 -5 41 4.1
-1 -15 5 37.3 4.6
-15 1 5 41.1 5
5 -1 -15 42.5 4.5
1 -5 15 40 4
1 5 -15 42.9 4.2
15 1 -5 38.7 4.5
-5 -1 15 44.8 4.9
-5 1 -15 34.2 2.3
-15 -5 1 48.4 4.8
15 -5 -1 41.8 4.7
15 -1 5 44.9 4
-5 -15 -1 46 4.7
5 1 -15 40.2 4.4
1 -15 5 40.7 4.8
-1 -15 -5 36.5 4.4
-5 -1 -15 49.2 2.6
15 1 5 43.9 3.9
-15 -5 -1 38.8 4.5
15 -5 1 40.1 4.6
15 5 -1 40.5 4.6
-15 -1 5 45.3 4.7
-1 -5 15 45.4 4.4
15 -1 -5 39.2 4.8
1 -5 -15 39.7 4.3
-5 -15 1 40.8 4.6
-1 5 -15 48.7 4
-5 -15 -3 268.87 13.5
5 -3 -15 262.37 13.5
15 -5 -3 238.48 13.4
-3 -5 -15 258.57 12.7
3 -5 15 246.58 12.6
-3 -15 5 239.48 13.3
15 3 -5 246.98 13.4
15 5 3 242.18 13.1
3 5 -15 253.37 13.1
5 -15 3 236.78 13.2
5 15 -3 259.97 13.5
-5 -3 15 241.48 13.5
-15 -3 -5 238.08 12.9
15 -3 5 225.38 12.8
-15 -5 3 257.17 13.5
15 5 -3 242.08 13.4
-15 -5 -3 255.17 13.3
15 -5 3 244.98 13.2
-15 -3 5 260.07 13.6
5 3 -15 247.68 13.2
15 3 5 249.88 12.9
15 -3 -5 236.78 13.4
-3 -5 15 238.68 13.3
3 -15 5 259.57 13.4
-5 -15 3 260.07 13.2
-3 -15 -5 258.67 13.3
-5 -3 -15 266.87 12
-3 5 -15 258.57 12.5
3 -5 -15 225.08 13.2
-5 -15 -5 327.17 17.3
15 5 5 327.47 17
15 5 -5 351.86 17.4
-5 -15 5 357.16 17.3
15 -5 5 289.17 16.9
-15 -5 -5 340.07 17.1
-15 -5 5 345.67 17.6
5 15 -5 347.37 17.4
5 -5 -15 340.07 17.4
-5 -5 -15 359.06 16.4
-5 -5 15 350.86 17.5
5 -15 5 326.17 17.3
15 -5 -5 342.87 17.6
5 5 -15 332.17 17.3
5 -5 15 359.06 16.3
15 -1 7 479.75 21.8
15 7 1 453.45 22.5
-1 -7 -15 450.15 22.4
15 -7 -1 463.85 22.8
7 -1 -15 462.15 22.6
-1 -15 7 446.36 22.5
1 -7 15 463.45 22.3
15 1 -7 391.86 22.5
-15 -7 1 446.16 22.6
-7 -1 15 462.25 22.9
7 15 -1 477.65 22.7
-15 1 7 442.76 22.8
1 7 -15 462.45 22.3
-7 -15 -1 462.05 22.6
-1 -7 15 442.36 22.4
-1 7 -15 452.55 22.2
15 7 -1 431.86 22.5
-7 -15 1 480.85 22.7
1 -15 7 472.85 22.7
15 -7 1 452.75 22.8
15 -1 -7 446.76 22.7
-1 -15 -7 449.46 22.5
1 -7 -15 481.45 22.7
-15 -1 7 477.15 22.8
-15 -7 -1 478.45 22.7
15 1 7 470.75 21.8
7 1 -15 451.05 22.5
3 7 -15 4.9 3
7 -15 3 2.1 3.3
7 15 -3 2.1 2.9
15 7 3 4.2 3.1
15 -3 7 3.5 2.5
15 3 -7 3 3.3
15 -7 -3 4.3 3.6
7 -3 -15 2.5 3.3
3 -7 15 2.5 2.6
-15 -3 -7 3.8 2.7
-3 -7 -15 0.3 2.9
-7 -3 15 2.1 3.5
-7 -15 -3 -0.8 3.2
-3 -15 7 2.9 3.1
-15 -7 3 -0.2 3.2
-3 -15 -7 -0.5 3.2
15 -3 -7 5.6 3.1
15 3 7 4.7 2.6
-15 -3 7 1.9 3.5
15 7 -3 3 3.2
-7 -15 3 2.9 3.1
7 3 -15 1 3.1
-3 -7 15 2.8 3.2
-3 7 -15 4.1 2.5
3 -7 -15 -0.2 3.3
3 15 -7 1.7 3.3
-15 -7 -3 3.7 3.2
3 -15 7 3.6 3.3
15 -7 3 3.1 3.4
-5 -7 -15 6.3 2.5
-7 -5 15 4.6 3.5
15 7 5 6.4 3.1
-5 -15 7 4.3 3.4
7 -15 5 5.9 3.3
-5 -7 -15 4.9 2.8
-15 -7 5 1.3 3.2
7 -5 -15 3.1 3.5
15 5 -7 3 3
-15 -5 -7 4.3 2.8
15 -5 7 3.6 2.7
-7 -15 -5 3.5 3.4
15 -7 -5 2.5 3.6
5 -7 15 3.3 2.4
5 7 -15 2.4 3.2
7 15 -5 4.6 3.3
-5 -7 15 3.7 3.5
-7 -5 -15 4.7 1.7
-15 -7 -5 4.5 3.2
-5 -15 -7 4.8 3.4
15 7 -5 6.5 3.7
-7 -5 -15 5 1.7
15 -5 -7 4.3 3.7
5 15 -7 7.9 3.4
-7 -15 5 4.8 2.7
5 -7 -15 7.5 3.7
5 -15 7 2.7 3.3
-15 -5 7 1.5 3.2
15 -7 5 3.8 3.3
15 5 7 3.3 2.8
7 5 -15 2.2 3.3
-7 -15 -7 868.81 39.8
15 7 -7 842.92 39.8
-15 -7 -7 775.72 39.3
-15 -7 7 877.01 40
7 7 -15 836.42 39.8
7 15 -7 889.21 39.9
15 -7 7 832.02 39.3
15 -7 -7 808.42 39.9
-7 -7 -15 859.01 38.9
-7 -7 15 875.21 40
7 -15 7 747.63 39.5
7 -7 -15 864.21 39.9
7 -7 15 873.21 38.6
-7 -15 7 866.11 39.8
15 7 7 796.82 39.3
-7 -7 -15 794.82 38.8
-9 -15 -1 848.62 39.9
15 -9 -1 776.12 39.9
15 9 1 783.52 39.7
9 15 -1 880.41 40
1 -9 15 804.82 39.5
-1 -15 9 859.01 39.9
15 -1 9 891.61 38.7
15 1 -9 868.01 39.9
9 -1 -15 834.72 39.8
-15 1 9 866.31 40.1
-9 -1 15 849.81 40
-15 -9 1 871.91 39.9
1 9 -15 806.82 39.6
9 1 -15 868.31 39.9
-9 -15 1 890.61 39.9
15 -9 1 694.53 39.7
15 9 -1 821.32 39.8
15 -1 -9 822.12 39.8
1 -15 9 869.61 39.9
1 -9 -15 832.62 39.9
-1 -9 15 747.33 39.6
15 1 9 885.81 38.7
9 15 1 902.71 40
-15 -9 -1 883.41 39.9
-1 9 -15 806.02 39.4
-15 -1 9 867.61 40.1
-1 -15 -9 843.22 39.8
3 9 -15 137.89 9.7
-9 -15 -3 170.28 9.9
15 -9 -3 161.88 10.2
15 -3 9 170.78 8.5
15 3 -9 168.88 10
9 -3 -15 159.18 10
-3 -15 9 166.48 10
15 9 3 146.09 9.6
9 15 -3 162.18 9.8
-15 -9 3 172.98 10
3 -9 15 148.99 9.4
-9 -3 15 158.78 10.2
15 -9 3 153.48 9.9
3 15 -9 166.88 10
15 3 9 164.98 8.6
3 -9 -15 157.48 10.3
-15 -9 -3 139.39 9.8
-9 -15 3 169.48 10
15 9 -3 169.78 10
-3 -15 -9 191.68 9.9
3 -15 9 158.38 9.9
15 -3 -9 164.88 10.2
9 3 -15 160.98 9.9
-3 -9 15 156.98 10.1
-15 -3 9 155.88 10.1
-5 -15 9 370.46 18
5 9 -15 294.07 17.5
15 -9 -5 366.86 18.3
5 -9 15 348.87 17.2
-5 -9 -15 335.67 17.3
9 -15 5 330.27 17.8
9 15 -5 369.86 18
-15 -5 -9 358.56 17.1
-9 -5 15 350.56 18.1
15 5 -9 348.17 17.8
9 -5 -15 361.46 18.1
-9 -15 -5 329.87 17.9
15 9 5 306.07 17.5
-15 -9 5 382.56 18.1
15 -5 9 372.86 16.9
-5 -15 -9 273.27 17.6
-15 -5 9 360.06 18
5 -15 9 351.76 17.9
-15 -9 -5 298.87 17.6
5 -9 -15 362.16 18.3
15 9 -5 347.87 17.9
9 5 -15 371.16 18
-5 -9 15 364.96 18.2
15 -5 -9 334.77 17.9
-9 -15 5 376.46 18
15 -9 5 305.37 17.7
15 5 9 380.66 17
5 15 -9 348.37 17.9
7 9 -15 1140.29 53.49
9 -15 7 994.4 53.09
7 -9 15 1166.38 52.59
15 -7 9 1190.68 52.79
15 7 -9 1146.89 53.49
15 9 7 1062.19 53.09
-15 -7 -9 1123.79 52.79
-9 -7 15 1179.68 53.69
-9 -15 -7 1129.69 53.39
-7 -15 9 1188.48 53.59
-15 -9 7 1158.88 53.59
-7 -9 -15 1137.59 52.79
9 -7 -15 1198.78 53.69
15 -9 -7 1172.28 53.69
9 15 -7 1118.29 53.39
9 -7 15 1240.28 51.79
15 -9 7 1143.29 53.29
15 9 -7 1170.58 53.49
7 -9 -15 1166.68 53.79
-9 -15 7 1162.38 53.49
-7 -15 -9 1171.98 53.49
7 -15 9 935.81 53.09
-9 -7 -15 1238.38 52.29
-9 -7 -15 1163.58 52.29
7 15 -9 1161.48 53.49
9 7 -15 1162.38 53.49
15 -7 -9 1000.6 53.39
-7 -9 15 1127.99 53.49
-15 -9 -7 1043.2 53.09
-15 -7 9 1189.18 53.69
9 -9 15 1681.23 79.59
-15 -9 9 1854.01 80.89
-15 -9 -9 1642.54 80.19
-9 -15 9 1827.22 80.79
9 -15 9 1544.95 80.39
9 -9 -15 1795.02 80.99
15 -9 9 1758.92 80.29
-9 -15 -9 1593.14 80.49
9 9 -15 1718.83 80.69
-9 -9 -15 1862.61 79.99
-9 -9 15 1750.12 80.79
9 15 -9 1794.12 80.79
15 9 -9 1802.12 80.79
15 -9 -9 1793.02 80.89
11 -1 -15 107.69 7.8
-11 -1 15 106.79 7.9
1 11 -15 90.79 7.2
-1 -15 11 109.29 7.7
-11 -15 -1 101.09 7.7
15 1 -11 103.69 7.7
15 11 1 94.49 7.4
15 -11 -1 111.89 8.1
1 -11 15 82.49 7
11 15 -1 112.59 7.7
-15 -11 1 102.49 7.6
-15 -11 -1 110.59 7.8
11 15 1 94.89 7.5
-1 11 -15 90.69 7
15 11 -1 105.99 7.6
1 -15 11 103.79 7.6
-15 -1 11 100.09 7.7
11 1 -15 112.89 7.7
15 -1 -11 94.59 7.5
15 -11 1 81.39 7.6
-1 -11 15 67.19 6.9
-11 -15 1 118.89 7.7
-3 -15 11 345.87 17.4
15 3 -11 328.57 17.2
-11 -3 15 349.27 17.5
11 15 -3 353.76 17.3
3 11 -15 292.07 17
-11 -15 -3 355.96 17.3
3 -11 15 309.47 16.8
11 -3 -15 339.47 17.4
-15 -11 3 328.87 17.2
15 -11 -3 330.37 17.5
15 11 3 300.17 17.2
15 11 -3 344.17 17.4
-3 -11 15 342.37 17.3
3 -11 -15 332.67 17.5
-15 -3 11 344.47 17.5
15 -3 -11 333.87 17.4
-3 -15 -11 335.07 17.1
-15 -11 -3 308.97 17.1
11 3 -15 343.17 17.3
15 -11 3 266.57 17.4
-11 -15 3 336.87 17.1
3 15 -11 356.36 17.3
3 -15 11 288.07 17
11 -5 -15 243.18 13.8
-5 -11 -15 226.78 13.2
15 5 -11 249.78 13.3
5 -11 15 239.28 13.1
15 -5 11 251.87 11.6
-5 -15 11 269.47 13.8
-11 -5 15 257.57 14
15 -11 -5 244.18 13.9
15 -5 11 271.77 11.7
-15 -5 -11 258.67 12.2
11 15 -5 265.07 13.7
-11 -15 -5 239.58 13.6
-15 -11 5 241.98 13.6
5 11 -15 240.58 13.7
15 11 5 201.58 13.4
15 11 -5 245.78 13.6
-11 -15 5 257.67 13.6
5 -15 11 238.18 13.6
-5 -15 -11 215.98 13.4
15 -11 5 227.98 13.8
5 15 -11 242.68 13.6
-5 -11 15 240.48 13.7
-15 -11 -5 211.78 13.2
11 5 -15 236.38 13.6
15 -5 -11 237.88 13.7
-15 -5 11 259.97 13.9
5 -11 -15 243.68 14.2
11 -15 7 -0.6 3.9
15 -7 11 6.9 2.4
15 -11 -7 3.5 4.5
-11 -7 15 2.8 4
11 -7 -15 4.4 3.8
-15 -7 -11 4.2 2.9
-7 -11 -15 2.9 3.5
7 -11 15 4 3.3
-11 -15 -7 4.3 3.9
-15 -11 7 3.5 3.9
11 15 -7 -1 4
-7 -15 11 4.1 3.9
7 11 -15 1.1 3.9
15 7 -11 3.4 3.8
15 -7 11 5.6 2.6
15 11 -7 6.6 4
-15 -11 -7 3.6 3.7
-11 -7 -15 4.6 1.7
15 -11 7 1.4 4.2
-7 -15 -11 4.1 4
-7 -11 15 1.6 4.1
7 -11 -15 4.8 4.4
11 7 -15 2.2 4.1
7 15 -11 2.5 3.9
15 -7 -11 5.1 4
-15 -7 11 7.7 4.3
-11 -15 7 1.1 3.5
7 -15 11 2.4 3.9
-11 -7 -15 5.5 1.7
11 -9 -15 136.49 9.4
9 -11 15 124.99 7.9
-9 -15 11 124.39 9.1
15 -11 -9 131.09 9.2
-9 -11 -15 106.39 7.9
-15 -11 9 147.79 9.4
15 -9 11 99.79 7.4
15 -9 11 119.59 8.2
15 9 -11 125.89 8.9
-11 -9 15 134.69 9.4
11 -15 9 115.59 8.7
11 15 -9 125.89 9.1
9 11 -15 133.09 9.1
-11 -15 -9 114.09 8.7
-15 -9 -11 130.39 8.3
9 15 -11 115.39 8.9
-15 -9 11 145.89 9.5
9 -11 -15 148.29 9.7
11 -9 15 145.89 6.9
11 9 -15 136.49 9
-11 -9 -15 119.59 7.7
15 -11 9 119.89 8.3
15 -11 9 117.69 8.7
15 11 -9 134.99 9
9 -15 11 142.89 9.2
-9 -11 15 123.79 9.1
-15 -11 -9 103.09 8.2
-11 -15 9 134.09 9.2
-9 -15 -11 116.19 8.8
15 -9 -11 120.99 9.1
-15 -11 11 57.49 6.3
-11 -15 -11 54.79 6.1
-11 -15 11 67.19 6.6
11 -15 -11 55.79 6.8
-11 -11 -15 60.39 5.5
15 -11 11 46.6 5.4
11 -11 15 62.09 5.1
-11 -11 15 70.79 6.9
15 11 -11 50.09 6.2
-15 -11 -11 52.99 5.8
15 -11 11 60.89 6.1
11 -15 11 46.3 5.9
11 -11 -15 62.99 6.9
11 11 -15 65.69 6.3
11 15 -11 56.19 6
15 -11 -11 63.39 6.6
13 15 -1 2.6 4.1
1 13 -15 3.7 3.8
13 -1 -15 6.2 4.2
15 1 -13 5.2 3.6
-1 -15 13 1.7 4.1
1 -13 15 6.9 3.9
-13 -1 15 2.6 4.3
-13 -15 -1 5.3 4
15 13 1 5.5 4
-15 -13 1 5.5 4.1
15 -13 -1 6.1 4.6
13 1 -15 1.9 4
13 15 1 6.6 4.2
15 -1 -13 4.7 4.2
-1 -13 15 5.5 4.1
15 13 -1 8.3 4.1
-13 -15 1 3.5 3.8
-15 -1 13 9.6 4.4
1 15 -13 4.1 3.8
-15 -13 -1 4.4 3.9
1 -15 13 7.6 4
3 -13 15 697.43 35.9
-3 -13 -15 691.73 36
15 -13 -3 744.93 36.6
-15 -13 3 781.52 36.3
15 3 -13 782.72 36.3
-13 -15 -3 768.52 36.3
-3 -15 13 782.42 36.4
13 -3 -15 757.42 36.3
-13 -3 15 786.62 36.5
3 13 -15 751.12 36.3
13 15 -3 788.32 36.2
15 13 3 665.53 36.1
13 15 3 752.52 36.3
-13 -15 3 782.82 36.3
-15 -3 13 781.72 36.5
-3 -13 15 741.03 36.2
-3 -15 -13 779.42 36.3
3 -15 13 691.53 36
15 13 -3 818.92 36.4
-15 -13 -3 724.43 36.2
15 -3 -13 755.72 36.3
13 3 -15 762.02 36.2
3 15 -13 754.62 36.2
15 5 -13 775.52 36.6
-15 -13 5 796.72 36.6
5 -13 15 810.62 36.3
5 13 -15 792.82 36.7
13 15 -5 727.53 36.5
15 13 5 693.13 36.5
-5 -15 13 780.92 36.7
-13 -15 -5 698.93 36.5
-13 -5 15 763.32 36.8
15 -13 -5 766.32 36.9
-5 -13 -15 717.53 36.3
13 -5 -15 735.03 36.6
15 -5 -13 791.12 36.7
5 15 -13 772.22 36.6
-5 -13 15 813.42 36.7
13 5 -15 762.42 36.6
5 -15 13 726.23 36.3
-15 -13 -5 681.73 36.3
-13 -15 5 765.82 36.5
15 13 -5 779.72 36.6
-5 -15 -13 762.92 36.6
-15 -5 13 768.62 36.8
5 -13 -15 800.52 37.1
7 -13 15 68.09 6.2
7 13 -15 65.49 6.5
-15 -7 -13 56.89 4.3
-7 -13 -15 54.59 6
13 15 -7 63.49 6.4
-15 -13 7 54.79 6.2
15 7 -13 69.79 6.5
13 -15 7 67.09 6.4
-13 -15 -7 55.39 6.2
13 -7 -15 62.69 6.8
15 -13 -7 73.89 7
-7 -15 13 64.29 6.6
-13 -7 15 62.69 6.5
-15 -7 13 56.29 6.6
7 -13 -15 47.4 6.7
7 -15 13 60.19 6.1
7 15 -13 63.49 6.5
-13 -15 7 60.79 6.3
13 7 -15 68.59 6.4
-7 -15 -13 53.29 6.1
15 13 -7 71.39 6.5
-7 -13 15 53.89 6.5
-15 -13 -7 55.09 6.1
15 -7 -13 67.29 6.8
-13 -15 -9 4.9 4.7
15 -9 13 6 2.9
15 9 -13 0.2 4.3
13 -15 9 0.9 4.5
15 -9 13 1.3 2.6
-15 -13 9 5.6 4.4
-15 -9 -13 6.1 3.6
-13 -9 15 1.1 4.7
15 -13 -9 6.1 4.8
13 15 -9 8 4.4
9 -15 -13 4.8 4.7
9 -13 15 4.7 4
9 13 -15 1.1 4.5
13 -9 -15 2.7 4.3
-9 -13 -15 3.5 4.2
-9 -15 13 4.1 4.7
15 -13 9 5.7 4.3
9 -15 13 3.9 4.4
15 -9 -13 0.3 4.7
13 -15 -9 3.1 4.9
-15 -13 -9 2.6 4.5
-9 -15 -13 5.1 4.7
-13 -9 -15 4.9 3
-15 -9 13 2.8 4.2
9 15 -13 4.4 4.1
-13 -15 9 2 4.5
13 9 -15 2.7 4.1
-9 -13 15 4 4.7
9 -13 -15 2.1 4.9
15 13 -9 4 4.5
-15 -13 11 493.65 25.2
13 -15 11 510.05 25.1
13 15 -11 490.15 25
-13 -11 15 508.75 25.4
15 -11 13 505.05 24.2
15 -11 13 517.65 24.4
15 11 -13 507.35 25.1
-15 -11 -13 495.65 24.6
15 -13 -11 496.65 25.4
-13 -15 -11 500.75 25.2
-11 -15 13 515.45 25.3
-11 -13 -15 484.25 24.7
13 -11 -15 477.15 25.3
11 -15 -13 502.15 25.6
11 -13 15 520.65 24.6
11 13 -15 491.15 25.1
11 -13 -15 496.55 25.5
13 -15 -11 484.05 25.4
-13 -11 -15 439.66 24.3
15 -11 -13 477.85 25.3
-11 -15 -13 517.25 25.2
-13 -15 11 500.65 25.2
-15 -13 -11 465.15 25
11 -15 13 506.85 25
11 15 -13 506.65 25.1
-11 -13 15 522.35 25.4
13 -11 15 489.05 23.8
13 -11 15 508.15 24
13 11 -15 501.85 25.1
-15 -11 13 492.35 25.3
15 -13 11 471.75 24.8
15 13 -11 500.15 25.1
-15 -13 -13 628.14 30.6
-15 -13 13 622.84 30.8
-13 -15 -13 637.64 30.8
-13 -15 13 620.84 30.7
-13 -13 -15 556.64 30.2
-13 -13 15 635.64 30.9
13 -15 -13 642.34 30.9
13 -15 13 638.94 30.6
13 -13 -15 611.04 31
13 -13 15 597.74 29.9
13 13 -15 633.94 30.7
13 15 -13 650.13 30.7
15 -13 -13 607.04 31
15 -13 13 595.94 30.2
15 -13 13 637.44 30.6
15 13 -13 598.24 30.5
-15 -15 -1 916.51 42.9
-15 -15 1 905.01 42.8
-15 -1 15 897.81 43
-1 -15 15 872.11 42.7
1 -15 15 892.61 42.7
1 15 -15 852.21 42.7
15 -1 -15 893.81 42.8
15 1 -15 929.41 42.8
15 15 -1 909.11 42.9
15 15 1 896.91 42.8
-15 -15 -3 104.69 8.6
-15 -15 3 112.19 8.6
-15 -3 15 109.69 9.1
-3 -15 -15 117.79 8.8
-3 -15 15 105.29 8.6
3 -15 15 119.69 8.7
3 15 -15 122.49 8.8
15 -3 -15 114.29 8.9
15 3 -15 134.99 9.1
15 15 -3 129.19 9.1
15 15 3 101.49 8.6
-15 -15 -5 50.69 6.4
-15 -15 5 59.89 6.2
-15 -5 15 53.89 6.7
-5 -15 -15 45.6 6.3
-5 -15 15 47.7 6.3
5 -15 15 63.89 6.4
5 15 -15 59.99 6.4
15 -15 -5 49.3 6.6
15 -5 -15 57.99 6.6
15 5 -15 52.49 6.2
15 15 -5 53.19 6.1
-15 -15 -7 307.57 16.6
-15 -15 7 305.07 16.5
-15 -7 15 311.27 16.9
-7 -15 -15 275.97 16.7
-7 -15 15 319.57 16.8
7 -15 -15 293.37 17.1
7 -15 15 303.77 16.5
7 15 -15 309.67 16.9
15 -15 -7 286.67 17
15 -15 7 296.57 16.6
15 -7 -15 285.07 16.8
15 7 -15 307.67 16.6
15 15 -7 307.47 16.5
-15 -15 -9 819.52 38
-15 -15 9 784.52 37.9
-15 -9 -15 768.22 36.2
-15 -9 15 798.02 38
-9 -15 -15 758.12 37.7
-9 -15 15 791.72 38
9 -15 -15 798.22 38.4
9 -15 15 753.42 37.6
9 15 -15 785.82 37.9
15 -15 -9 757.22 38.1
15 -9 -15 758.62 38
15 9 -15 789.62 37.8
15 15 -9 812.72 37.9
-15 -15 -11 17.8 5.8
-15 -15 11 12.6 5.5
-15 -11 -15 13.4 4.9
-15 -11 15 18.2 5.6
-11 -15 -15 16.6 5.7
-11 -15 15 20.2 5.9
11 -15 -15 16.8 6.1
11 -15 15 20.8 5.6
11 15 -15 22.4 5.5
15 -15 -11 19.5 5.9
15 -15 11 22 5.8
15 -11 -15 27.9 6.1
15 -11 15 18.2 3.3
15 -11 15 16.6 3.5
15 11 -15 21.2 5.2
15 15 -11 18.5 5.4
-15 -15 -13 8 6.3
-15 -15 13 4.3 5.5
-15 -13 -15 3.6 5.7
-15 -13 15 6.3 5.4
-13 -15 -15 3.7 6.1
-13 -15 15 2.7 5.6
13 -15 -15 2.9 6.1
13 -15 15 4.6 5.5
13 15 -15 5.7 5.1
15 -15 -13 2.6 6
15 -15 13 1 5.9
15 -13 -15 7.6 5.8
15 -13 15 2.3 4.8
15 -13 15 5.7 5.6
15 13 -15 2.8 5.4
15 15 -13 4.5 5.3
-15 -15 15 675.43 33.7
15 -15 -15 662.13 33.9
15 -15 15 672.63 33.5
15 -15 15 681.73 34.4
15 15 -15 690.03 33.5
-16 0 0 5687.13 261.27
0 -16 0 5639.94 261.17
0 0 -16 5802.62 260.77
16 0 0 5850.61 261.17
-16 0 2 1543.05 71.29
-2 -16 0 1575.54 71.19
0 -2 -16 1537.75 70.79
0 -2 16 1507.85 70.79
0 2 -16 1554.74 70.69
2 -16 0 1488.85 71.09
16 0 -2 1484.45 71.09
16 0 2 1520.35 70.99
16 2 0 1546.55 71.09
16 -2 0 1559.74 71.19
-16 -2 0 1514.35 71.09
-2 0 -16 1655.83 70.49
0 -16 -2 1447.36 71.09
0 -16 2 1586.44 71.19
2 0 -16 1548.55 70.89
-2 -2 -16 806.32 37.4
-2 -16 2 847.52 38.2
16 -2 2 803.82 38
16 2 -2 804.12 38.1
16 2 2 793.92 37.9
-2 2 -16 791.02 37.4
2 -16 -2 812.02 38.1
2 -16 2 785.12 38.1
2 -2 -16 834.22 37.9
2 2 -16 819.42 37.8
16 -2 -2 793.92 38.1
-16 -2 -2 791.82 38
-16 -2 2 821.22 38.3
-2 -16 -2 809.12 38.2
-2 -2 16 765.42 37.9
0 -4 16 325.57 16.1
0 4 -16 313.87 16
0 -4 -16 342.47 16.2
16 0 -4 311.47 16.5
-16 -4 0 312.57 16.4
-4 0 -16 348.77 15.2
0 -16 -4 309.57 16.4
0 -16 4 286.27 16.3
4 0 -16 310.87 16.3
16 -4 0 302.97 16.5
16 4 0 310.47 16.3
4 -16 0 310.97 16.4
-16 0 4 356.76 16.8
-4 -16 0 326.97 16.5
16 0 4 303.97 16.1
-4 2 -16 82.99 4.7
-2 -4 -16 77.49 5.5
-2 -16 4 84.49 6.6
2 -16 -4 81.39 6.3
2 -4 16 70.49 5.3
-16 -4 2 78.89 6.4
16 2 -4 77.79 6.3
2 4 -16 77.29 5.9
4 -16 2 86.59 6.4
-4 -16 -2 84.09 6.5
-16 -2 -4 76.49 6
16 -2 4 72.99 5.8
-4 -2 16 74.09 6.3
4 -2 -16 84.59 6.2
16 4 2 85.09 6.3
16 -4 -2 71.69 6.3
-16 -4 -2 66.09 6
-4 -16 2 80.09 6.5
-2 -16 -4 76.09 6.2
-2 -4 16 76.09 6.1
16 -2 -4 67.09 6.3
2 -4 -16 88.09 6.2
-4 -2 -16 82.79 4.9
-16 -2 4 87.19 6.7
16 -4 2 73.89 6.1
16 4 -2 76.19 6.2
4 2 -16 85.69 6.2
16 2 4 68.39 5.6
-2 4 -16 92.49 5.6
2 -16 4 83.29 6.6
-16 -4 4 33 4.8
-4 -4 -16 38.1 3.4
-4 -4 16 29.3 4.5
-4 4 -16 41.8 3.3
4 -16 4 37.6 4.5
4 -4 -16 33.5 4.4
4 -4 16 42.3 3.3
4 4 -16 39.1 4.4
16 -4 -4 28.3 4.5
16 -4 4 36 4.2
-16 -4 -4 35.8 4.4
16 4 4 32.7 4.2
16 4 -4 39 4.7
-4 -16 4 37.5 4.7
-4 -16 -4 41.2 4.7
0 -6 16 279.57 17.9
16 0 6 402.96 17.9
16 -6 0 352.66 18.5
0 -6 -16 356.76 18.2
-16 0 6 366.76 18.7
16 6 0 369.36 18.5
6 0 -16 350.56 18.3
0 6 -16 368.66 18.1
16 0 -6 339.07 18.5
0 -16 6 404.66 18.7
-6 -16 0 367.06 18.4
-16 -6 0 374.26 18.6
0 -16 -6 388.16 18.5
-16 -2 -6 68.79 5.3
6 -16 2 75.59 5.9
16 -6 -2 59.49 5.8
2 6 -16 65.39 5.4
16 6 2 55.09 5.5
-16 -6 2 62.79 5.9
-6 -2 16 66.29 6
16 2 -6 62.09 5.8
2 -6 16 62.49 5
-2 -6 -16 53.99 4.9
6 -2 -16 55.99 5.4
16 -2 6 71.59 5.1
-6 -16 -2 70.69 5.9
-2 -16 6 67.69 5.8
-16 -2 6 70.79 6.1
-2 6 -16 59.49 4.8
-6 -16 2 65.89 5.8
2 -16 6 66.79 5.8
-2 -6 16 54.99 5.4
16 -6 2 52.39 5.4
16 6 -2 52.79 5.5
-2 -16 -6 62.39 5.7
16 -2 -6 64.29 5.8
6 2 -16 60.39 5.5
2 -6 -16 67.39 5.7
16 2 6 65.19 5
-16 -6 -2 55.99 5.5
-6 -4 16 101.89 7.8
16 6 4 112.49 7.6
-16 -6 4 117.09 8
6 -16 4 102.49 7.6
-4 -16 6 108.09 7.8
16 -6 -4 105.19 7.9
4 -6 16 105.89 6.8
6 -4 -16 93.29 7.5
-4 -6 -16 119.69 7.1
6 16 -4 112.69 7.9
-6 -16 -4 121.39 8
16 -4 6 110.39 7.3
16 4 -6 114.89 8
4 6 -16 115.89 7.7
-16 -4 -6 107.89 7.2
16 6 -4 105.99 7.7
16 -6 4 95.39 7.4
16 4 6 115.89 7.3
-6 -4 -16 115.89 5.9
-4 -16 -6 123.99 8.1
-16 -6 -4 98.79 7.3
4 -6 -16 93.59 7.5
-16 -4 6 135.89 8.1
16 -4 -6 120.79 8.2
-6 -16 4 117.89 7.8
4 -16 6 112.19 7.8
-4 -6 16 92.49 7.6
-4 6 -16 114.19 6.6
4 16 -6 107.89 7.8
-6 -4 -16 113.29 5.9
6 4 -16 93.29 7.4
6 -16 6 79.49 6.6
16 -6 -6 78.39 6.8
16 -6 6 62.29 5.8
6 16 -6 85.79 6.6
-16 -6 -6 80.29 6.3
-6 -6 16 80.69 6.8
-6 -6 -16 79.79 5.1
-6 -16 -6 75.79 6.5
-6 -16 6 91.99 6.9
-6 -6 -16 74.89 4.9
16 6 -6 83.99 6.7
16 6 6 69.89 5.9
-16 -6 6 80.89 6.9
6 -6 -16 66.89 6.4
6 -6 16 79.29 5
6 6 -16 71.79 6.2
16 0 8 2039.5 92.39
0 -8 16 1978.5 92.99
0 -8 -16 1883.01 92.99
-16 0 8 2137.09 93.49
-8 -16 0 2101.99 93.29
-16 -8 0 2155.28 93.39
0 -16 -8 2095.19 93.29
16 0 -8 2147.99 93.39
16 -8 0 1968.9 93.39
0 8 -16 1938.61 92.89
0 -16 8 2048.4 93.29
8 0 -16 2030.5 93.29
16 8 0 1801.72 93.09
-8 -16 -2 1552.54 68.79
8 -2 -16 1481.45 68.79
16 -2 8 1541.75 67.89
16 -8 -2 1461.95 68.89
2 -8 16 1416.16 68.29
-8 -2 16 1494.25 68.89
8 16 -2 1491.75 68.79
-2 -8 -16 1493.55 68.49
2 8 -16 1425.46 68.49
16 2 -8 1559.24 68.89
-16 -8 2 1444.56 68.79
16 8 2 1351.26 68.59
-2 -16 8 1481.45 68.69
2 -16 8 1541.65 68.79
-2 -8 16 1272.87 68.39
8 2 -16 1487.75 68.79
-8 -16 2 1543.15 68.79
-16 -2 8 1569.24 68.99
16 -2 -8 1483.55 68.79
16 -8 2 1355.16 68.69
16 2 8 1666.53 67.99
-16 -8 -2 1469.35 68.69
2 -8 -16 1371.26 68.69
-2 -16 -8 1526.15 68.79
16 8 -2 1493.45 68.79
-2 8 -16 1523.25 68.39
-8 -16 -4 652.63 30.1
-4 -16 8 655.03 30.1
-16 -8 4 636.14 30.1
-8 -4 16 633.74 30.2
16 -4 8 677.53 29.2
16 8 4 517.05 29.6
8 -4 -16 623.74 30.1
-16 -4 -8 622.14 29.3
8 16 -4 641.54 30.1
16 -8 -4 633.84 30.2
4 8 -16 585.84 29.8
4 -8 16 661.13 29.4
16 4 -8 603.64 30
8 -16 4 617.94 29.9
-4 -8 -16 598.64 29.5
-16 -4 8 658.53 30.2
16 -8 4 569.94 29.9
-16 -8 -4 561.04 29.8
16 -4 -8 604.74 30.1
4 -8 -16 581.04 30
4 16 -8 660.23 30.1
-4 -16 -8 607.24 29.9
16 4 8 649.43 29.3
8 4 -16 606.54 29.9
-8 -16 4 652.43 30
4 -16 8 630.74 30
-4 -8 16 558.94 29.9
16 8 -4 611.24 30
16 8 6 1082.19 51.39
-6 -8 -16 1116.49 50.99
-16 -6 -8 1063.59 51.19
6 -8 16 1159.68 50.89
8 16 -6 1170.78 51.79
6 8 -16 1069.59 51.59
16 -6 8 1114.99 51.09
-8 -16 -6 1063.19 51.59
16 6 -8 1101.29 51.69
-16 -8 6 1082.59 51.69
8 -16 6 956.2 51.39
8 -6 -16 1116.19 51.89
-6 -8 -16 1151.68 51.09
16 -8 -6 1089.19 51.89
-6 -16 8 1115.89 51.69
-8 -6 16 1106.19 51.89
6 16 -8 1141.39 51.79
-8 -16 6 1145.89 51.79
8 6 -16 1064.59 51.59
-6 -8 16 1113.89 51.89
-16 -6 8 1148.69 51.99
6 -16 8 1068.89 51.59
16 -6 -8 1147.39 51.89
-8 -6 -16 1097.09 50.29
-16 -8 -6 917.31 51.19
16 6 8 1215.88 51.19
-8 -6 -16 1131.99 50.29
16 8 -6 1113.59 51.69
-6 -16 -8 1099.29 51.69
6 -8 -16 1079.89 51.89
16 -8 6 1081.59 51.49
-8 -8 -16 3977.3 177.48
8 8 -16 3864.01 178.28
8 -8 16 4023.3 177.18
16 -8 8 3935.61 177.88
-16 -8 -8 3756.62 177.88
-16 -8 8 3912.31 178.48
-8 -16 -8 3682.63 178.18
-8 -16 8 4010.7 178.38
8 -8 -16 3946.61 178.48
-8 -8 -16 4010.3 177.48
-8 -8 16 3914.31 178.48
8 16 -8 3920.41 178.38
16 8 8 4017.6 177.98
16 8 -8 3969.1 178.28
16 -8 -8 4102.19 178.58
8 -16 8 3429.16 178.08
-16 0 10 1519.35 65.79
10 0 -16 1452.05 65.49
10 16 0 1518.55 65.59
16 10 0 1439.36 65.49
-10 -16 0 1496.05 65.49
16 -10 0 1386.76 65.59
16 0 10 1309.17 63.99
0 -16 10 1513.75 65.59
0 -10 16 1166.68 64.99
0 10 -16 1253.67 64.99
-16 -10 0 1461.65 65.49
16 0 -10 1504.65 65.59
0 -10 -16 1284.07 65.39
16 10 2 407.46 24.9
-2 -16 10 528.05 25.3
16 -10 -2 524.45 25.5
10 -2 -16 546.85 25.5
-10 -16 -2 536.75 25.3
-10 -2 16 532.65 25.5
2 10 -16 458.15 24.9
10 16 -2 534.85 25.3
-16 -10 2 528.25 25.3
16 -2 10 556.24 23.7
2 -10 16 444.96 24.7
16 2 -10 541.25 25.3
-2 -10 16 422.46 24.9
16 -2 -10 549.25 25.4
16 10 -2 529.55 25.4
-10 -16 2 513.05 25.2
10 2 -16 538.35 25.3
-16 -10 -2 524.45 25.2
16 -10 2 437.36 25.1
-2 10 -16 536.15 24.9
-16 -2 10 541.15 25.5
16 2 10 508.45 23.7
2 -16 10 521.25 25.2
-2 -16 -10 511.85 25.2
2 -10 -16 474.15 25.4
16 -10 -4 136.99 9.5
10 -4 -16 147.69 9.6
16 4 -10 148.69 9.4
-4 -16 10 150.78 9.4
16 10 4 128.09 9.2
4 10 -16 140.99 9.3
10 -16 4 132.69 9.2
10 16 -4 158.58 9.8
-16 -10 4 126.19 9.2
16 -4 10 124.99 7.4
-10 -16 -4 144.49 9.4
-10 -4 16 157.78 10
4 -10 16 136.99 8.8
-16 -4 10 139.99 9.5
4 16 -10 142.89 9.2
16 10 -4 141.99 9.4
4 -16 10 118.89 9
-4 -16 -10 137.79 9.2
16 -10 4 114.29 9.2
-16 -10 -4 134.39 9.3
-10 -16 4 143.09 9.1
4 -10 -16 121.79 9.4
10 4 -16 147.69 9.5
16 -4 -10 147.59 9.6
-4 -10 16 132.79 9.3
6 10 -16 274.77 15.4
-10 -6 16 277.57 15.7
-10 -16 -6 259.27 15.4
10 -6 -16 285.27 15.9
16 6 -10 304.27 15.6
16 -10 -6 296.47 15.9
-16 -6 -10 327.17 14.7
10 -16 6 253.17 15.4
16 10 6 268.57 15.4
-6 -10 -16 235.98 14.8
-6 -16 10 288.77 15.6
-16 -10 6 290.17 15.6
16 -6 10 320.47 14.4
6 -10 16 296.37 14.9
10 16 -6 289.37 15.5
16 10 -6 283.77 15.5
16 -6 -10 302.97 15.8
-16 -6 10 288.27 15.7
-6 -10 16 299.97 15.9
6 -10 -16 294.47 15.9
6 -16 10 262.07 15.3
6 16 -10 302.27 15.7
-6 -16 -10 295.07 15.7
-16 -10 -6 265.97 15.4
10 6 -16 304.47 15.7
-10 -16 6 294.97 15.5
16 -10 6 281.57 15.7
10 -8 -16 1875.11 85.49
-10 -16 -8 1812.22 85.19
-8 -10 -16 1802.12 84.59
-8 -16 10 1973.2 85.49
-16 -10 8 1794.42 85.29
16 -8 10 1889.11 84.59
8 -10 16 1833.62 84.39
8 10 -16 1813.62 85.29
-16 -8 -10 1717.83 84.59
10 -16 8 1609.84 84.99
16 -8 10 1841.62 84.49
-10 -8 16 1915.51 85.59
16 8 -10 1851.31 85.29
16 -10 -8 1895.21 85.49
10 16 -8 1908.11 85.29
16 10 -8 1842.72 85.29
8 16 -10 1858.81 85.29
-16 -8 10 1866.81 85.39
10 8 -16 1876.21 85.29
8 -16 10 1759.42 85.09
16 -10 8 1844.42 85.09
-10 -16 8 1890.11 85.29
-8 -10 16 1908.11 85.49
-16 -10 -8 1658.03 84.89
-8 -16 -10 1750.32 85.19
-10 -8 -16 1927.41 84.09
16 -8 -10 1925.11 85.49
-10 -8 -16 1994.7 84.19
8 -10 -16 1809.52 85.49
-16 -10 10 1065.79 51.49
-16 -10 -10 1063.29 51.09
-10 -10 16 1126.59 51.79
10 -16 10 1106.79 51.39
10 -10 -16 1109.89 51.79
10 16 -10 1110.79 51.59
16 -10 -10 1059.59 51.59
16 -10 10 1125.49 50.89
16 10 -10 1087.49 51.49
-10 -16 -10 1093.09 51.49
-10 -16 10 1072.19 51.49
-10 -10 -16 1095.39 50.69
10 -10 16 1071.19 50.29
16 -10 10 1085.49 51.09
10 10 -16 1102.59 51.49
12 16 0 246.58 13.5
16 0 -12 246.28 13.4
0 -16 12 235.58 13.3
0 12 -16 222.08 13.1
0 -12 16 222.68 13.2
-12 -16 0 238.38 13.3
-16 -12 0 217.38 13.2
12 0 -16 236.18 13.4
16 -12 0 225.68 14
16 12 0 254.77 13.7
-16 0 12 217.18 13.5
-16 -12 2 4.9 4.1
12 16 -2 2.7 4.1
16 12 2 4.1 4.2
16 -12 -2 1.2 4.6
2 -12 16 1.4 3.6
2 12 -16 -0.6 3.7
-12 -2 16 0.3 4.1
16 2 -12 2.8 4.1
-12 -16 -2 1.9 3.8
12 -2 -16 0.4 3.8
-2 -16 12 -0.2 3.9
2 16 -12 -1 4
12 16 2 6 4.2
12 2 -16 1 3.9
16 12 -2 0.4 3.9
2 -12 -16 -1.5 4.5
-16 -12 -2 3 4
-2 -12 16 0.8 3.9
-16 -2 12 3.4 4.4
16 -12 2 4.9 4.6
-2 -16 -12 1.1 3.9
16 -2 -12 4.9 4
2 -16 12 0.2 4
-12 -16 2 6 3.8
-4 -16 12 478.95 22.8
4 12 -16 431.16 22.5
12 -4 -16 455.95 22.8
-12 -16 -4 475.35 22.7
12 16 -4 465.85 22.7
16 12 4 390.76 22.5
-4 -12 -16 429.86 22.4
-12 -4 16 455.25 23
16 -12 -4 460.55 23.1
-16 -12 4 481.95 22.9
16 4 -12 478.35 22.7
4 -12 16 427.86 22.3
4 -12 -16 460.55 23.1
-4 -12 16 448.76 22.8
4 16 -12 473.85 22.8
-12 -16 4 441.06 22.6
16 -12 4 390.16 22.7
4 -16 12 431.76 22.5
12 4 -16 474.85 22.7
-16 -12 -4 410.26 22.6
16 -4 -12 464.45 22.8
-4 -16 -12 433.96 22.7
16 12 -4 453.15 22.7
-16 -4 12 446.36 22.8
-6 -16 12 173.38 10.6
-16 -6 -12 135.49 8.4
16 6 -12 165.78 10.3
16 -12 -6 149.49 10.7
-6 -12 -16 145.89 9.9
16 12 6 153.58 10.3
12 16 -6 155.88 10.3
-16 -12 6 141.19 10.1
6 12 -16 149.99 10.3
12 -6 -16 162.28 10.7
-12 -6 16 158.48 10.7
12 -16 6 168.78 10.5
6 -12 16 143.69 9.8
-12 -16 -6 150.08 10.4
16 -12 6 148.29 10.5
12 6 -16 150.68 10.3
-16 -12 -6 154.58 10.3
6 -16 12 150.48 10.1
6 16 -12 160.38 10.4
-12 -16 6 153.18 10.3
16 -6 -12 165.98 10.6
6 -12 -16 165.98 11
-6 -16 -12 151.18 10.3
16 12 -6 159.58 10.4
-6 -12 16 164.88 10.6
-16 -6 12 175.58 10.7
16 -12 -8 176.68 11.9
12 -16 8 186.38 11.4
8 -12 16 177.78 10.8
16 -8 12 155.78 9.6
-12 -16 -8 170.18 11.5
12 -8 -16 188.98 12
-8 -16 12 190.18 11.7
-8 -12 -16 200.48 11.3
-16 -12 8 190.28 11.7
16 8 -12 180.78 11.4
-16 -8 -12 185.28 10.5
16 -8 12 192.28 9.9
-12 -8 16 202.78 12
8 12 -16 183.78 11.6
12 16 -8 184.48 11.5
12 8 -16 173.38 11.5
16 -8 -12 179.68 11.8
-16 -12 -8 171.08 11.4
16 12 -8 181.48 11.4
8 -16 12 176.58 11.7
-8 -16 -12 185.18 11.5
-16 -8 12 178.28 11.9
-8 -12 16 187.48 11.8
8 -12 -16 207.78 12.3
-12 -16 8 181.48 11.4
-12 -8 -16 181.68 8.8
16 -12 8 179.78 12
8 16 -12 185.48 11.4
16 -10 12 18.8 4.2
16 -12 -10 18.3 5.4
10 -12 16 11.1 4
10 12 -16 20.6 5.1
12 16 -10 14.6 5
12 -16 10 18.2 5.2
16 10 -12 13.6 4.5
-10 -12 -16 21.7 4.7
-16 -10 -12 14.4 4.5
12 -10 -16 22.5 5.5
10 -16 -12 19.1 5.3
-12 -10 16 19.6 5.6
-16 -12 10 18.5 5.1
-10 -16 12 20.8 5
16 -10 12 22.6 4
-12 -16 -10 17.2 5.4
16 -10 -12 20.2 5.3
-16 -12 -10 19.5 5
16 12 -10 20.4 5.2
-12 -10 -16 13.3 3.7
16 -12 10 21.1 5.4
-10 -16 -12 26.2 5.5
10 -12 -16 17.8 5.6
16 -12 10 14.2 4.6
12 10 -16 20.9 5.2
10 16 -12 24.5 5.3
12 -10 16 18.1 2.4
12 -16 -10 14.8 5.6
12 -10 16 19.6 2.5
-12 -16 10 19.1 5.1
-16 -10 12 24 5.6
10 -16 12 21.7 5.4
-10 -12 16 19.9 5.2
16 -12 12 219.98 12.6
12 -12 16 202.48 11.8
12 -12 -16 222.48 13.6
-12 -12 -16 212.98 12.6
12 16 -12 204.58 12.9
-12 -12 16 205.38 13.3
-16 -12 -12 209.68 13
-16 -12 12 213.98 13
16 -12 -12 214.38 13.3
-12 -16 -12 199.88 13.2
12 -16 12 203.88 13.2
16 -12 12 209.38 13.1
16 12 -12 197.78 12.7
-12 -16 12 201.38 13
12 12 -16 207.28 13.1
12 -16 -12 217.48 13.5
0 -16 14 589.54 29.6
0 14 -16 558.74 29.4
-14 -16 0 615.14 29.6
14 16 0 622.84 29.6
-16 -14 0 600.54 29.6
14 0 -16 629.54 29.6
16 14 0 621.54 29.6
16 0 -14 584.24 29.5
16 -14 0 586.44 30
0 -14 16 594.34 29.6
-16 -14 2 193.98 11.5
-2 -16 14 189.68 11.6
-14 -2 16 175.08 11.9
16 14 2 173.78 11.6
-14 -16 -2 184.08 11.5
2 -14 16 178.18 11.6
16 2 -14 180.98 11.5
14 -2 -16 175.48 11.3
2 14 -16 178.88 11.3
14 16 -2 188.48 11.6
16 -14 -2 178.58 12.1
14 2 -16 188.18 11.4
2 16 -14 183.18 11.7
2 -16 14 174.28 11.4
16 -14 2 171.08 12
16 14 -2 183.48 11.5
-14 -16 2 199.38 11.6
-2 -14 16 175.28 11.4
-16 -14 -2 173.38 11.4
16 -2 -14 185.08 11.5
-2 -16 -14 163.98 11.5
14 16 2 189.68 11.6
-16 -2 14 178.98 11.7
-16 -14 4 13.3 4.6
-4 -14 -16 12.1 4.8
-4 -16 14 10.4 4.8
16 -14 -4 13.6 5.5
-14 -4 16 6.1 5.1
16 14 4 7.9 4.7
-14 -16 -4 8 4.7
4 14 -16 11.7 4.7
16 4 -14 16.4 4.7
14 -4 -16 10.5 4.8
14 16 -4 11.5 4.4
4 -14 16 8.7 4.6
16 -4 -14 11 4.9
-14 -16 4 13.8 4.7
4 -16 14 9.3 4.6
-16 -14 -4 13.4 4.7
4 16 -14 12.2 4.7
16 14 -4 13.6 4.6
-16 -4 14 8.2 5
14 4 -16 9.5 4.6
4 -14 -16 14 5.5
-4 -16 -14 7.9 4.7
-4 -14 16 9.7 4.9
-6 -14 -16 -0.3 4.6
6 14 -16 2.9 4.6
-6 -16 14 5.4 4.8
14 16 -6 -1.3 4.5
16 6 -14 2.2 4.1
14 -6 -16 1.8 4.8
14 -16 6 3.2 4.9
16 -14 -6 1.4 5
-14 -6 16 3.3 4.8
-16 -14 6 2.5 4.6
-14 -16 -6 2 4.7
6 -14 16 -2 4.3
6 -16 14 2 4.5
-16 -6 14 7.2 4.7
-6 -16 -14 3.9 4.7
14 6 -16 -0.7 4.1
16 14 -6 1 4.6
-16 -14 -6 0.5 4.8
-6 -14 16 4.6 4.9
6 -14 -16 4.6 5.2
16 -6 -14 -0.2 4.6
6 16 -14 3.9 4.5
-14 -16 6 1.6 4.1
8 -16 -14 521.55 26
14 16 -8 509.85 25.3
-16 -8 -14 485.45 23.6
14 -8 -16 506.85 25.7
-14 -16 -8 511.95 25.5
-8 -16 14 519.25 25.5
-8 -14 -16 494.05 25.3
16 -14 -8 522.05 25.7
-16 -14 8 489.35 25.4
8 -14 16 549.74 25.2
8 14 -16 512.35 25.4
14 -16 8 500.55 25.4
16 8 -14 492.35 25.2
-14 -8 16 497.65 25.6
8 -16 14 493.15 25.3
8 -14 -16 507.35 25.9
-14 -16 8 484.45 25.4
-16 -14 -8 502.65 25.5
14 -16 -8 478.15 25.7
8 16 -14 494.05 25.3
-16 -8 14 501.85 25.6
14 8 -16 496.85 25.3
16 14 -8 498.35 25.3
-8 -14 16 538.25 25.8
16 -14 8 490.65 26
16 -8 -14 481.65 25.5
16 -14 8 505.35 25.4
-8 -16 -14 495.65 25.4
16 10 -14 179.58 11.7
-14 -10 16 198.58 12.5
-16 -14 10 180.88 12
16 -10 14 173.38 9.4
14 16 -10 184.18 11.8
-16 -10 -14 175.18 10.9
16 -10 14 175.68 9.6
-14 -16 -10 197.28 12.3
14 -10 -16 186.48 12.2
-10 -14 -16 155.78 11.2
16 -14 -10 168.58 12.1
10 -16 -14 167.68 12.2
10 -14 16 177.38 11.3
10 14 -16 184.48 12
-10 -16 14 197.38 12.2
14 -16 10 192.18 12.1
-16 -14 -10 166.58 11.6
14 -16 -10 198.28 12.5
-14 -10 -16 179.78 10.2
-16 -10 14 172.18 11.9
-10 -16 -14 170.68 11.6
16 -10 -14 189.08 12
10 -14 -16 188.18 12.4
10 -16 14 163.88 11.4
10 16 -14 161.48 11.6
-14 -16 10 173.58 11.8
14 10 -16 178.18 11.8
-10 -14 16 178.88 12
16 -14 10 177.28 12.2
16 14 -10 175.48 11.6
16 -14 10 199.08 12.2
-14 -16 -12 70.39 7.9
-12 -14 -16 73.29 7.6
14 -12 -16 76.99 7.9
-16 -12 -14 73.59 7.5
12 -14 16 57.59 6.9
12 14 -16 75.09 7.7
16 -14 -12 81.69 8.2
14 -16 12 64.39 7.6
14 16 -12 87.39 7.8
12 -16 -14 69.39 8.2
16 -12 14 75.59 6.5
16 -12 14 70.89 6.8
16 12 -14 86.59 7.8
-12 -16 14 67.09 7.8
-16 -14 12 85.99 8
-14 -12 16 77.29 8.2
-16 -14 -12 71.99 7.9
12 -14 -16 80.99 8.2
-14 -12 -16 54.19 6.7
-16 -12 14 79.99 7.9
-12 -16 -14 74.49 8
-14 -16 12 93.39 8.2
16 -12 -14 67.89 7.9
12 -16 14 70.89 7.6
12 16 -14 81.09 7.7
-12 -14 16 73.29 7.9
14 -12 16 67.19 5.6
14 -12 16 74.99 5.9
14 12 -16 77.39 7.8
14 -16 -12 64.39 8
16 -14 12 59.99 7.3
16 -14 12 72.59 8.2
16 14 -12 75.59 7.7
-16 -14 -14 44.8 7.6
-16 -14 14 35.8 7.1
-14 -16 -14 44.8 7.6
-14 -16 14 44.9 7.2
-14 -14 -16 42.6 7.4
-14 -14 16 48 7.4
14 -16 -14 39.5 7.3
14 -16 14 45.7 7.5
14 -14 -16 35.3 7.4
14 -14 16 38.6 6.5
14 -14 16 36.1 7.4
14 14 -16 56.39 7.1
14 16 -14 47.4 6.7
16 -14 -14 49.99 7.4
16 -14 14 39 6.8
16 -14 14 37.2 7.7
16 14 -14 50.29 6.8
-16 -16 0 1831.82 85.49
0 -16 16 1844.72 85.49
16 0 -16 1802.52 85.39
16 16 0 1889.11 85.59
-16 -16 -2 1247.48 58.69
-16 -16 2 1270.67 58.69
-16 -2 16 1228.48 58.79
-2 -16 -16 1277.27 58.69
-2 -16 16 1245.58 58.69
2 -16 16 1243.78 58.59
2 16 -16 1176.68 58.49
16 -16 -2 1242.48 58.99
16 -2 -16 1244.78 58.59
16 2 -16 1260.07 58.59
16 16 -2 1277.67 58.69
16 16 2 1231.98 58.69
-16 -16 -4 340.37 18.6
-16 -16 4 316.57 18.4
-16 -4 16 346.27 18.8
-4 -16 -16 350.66 18.9
-4 -16 16 328.17 18.5
4 -16 16 339.77 18.6
4 16 -16 336.67 18.4
16 -16 -4 360.26 19.4
16 -4 -16 350.26 18.6
16 4 -16 343.87 18.5
16 16 -4 345.57 18.5
-16 -16 -6 236.48 14.4
-16 -16 6 223.38 13.6
-16 -6 16 219.68 14.1
-6 -16 -16 222.58 14.1
-6 -16 16 234.88 14
6 -16 -16 250.87 14.8
6 -16 16 221.28 13.9
6 16 -16 212.78 13.7
16 -16 -6 212.68 14.3
16 -6 -16 228.68 14
16 6 -16 211.58 13.6
16 16 -6 230.98 13.9
-16 -16 -8 1751.32 80.09
-16 -16 8 1754.82 80.09
-16 -8 16 1653.63 80.09
-8 -16 -16 1794.62 80.09
-8 -16 16 1753.12 80.19
8 -16 -16 1652.43 80.29
8 -16 16 1710.33 79.89
8 16 -16 1714.73 79.99
16 -16 -8 1696.03 80.19
16 -16 8 1765.92 79.99
16 -8 -16 1720.53 80.09
16 8 -16 1666.43 79.79
16 16 -8 1704.03 79.89
-16 -16 -10 792.12 49.1
-16 -16 10 1046.6 49.4
-16 -10 16 1051.29 49.5
-10 -16 -16 1061.99 49.4
-10 -16 16 1099.89 49.6
10 -16 -16 1059.09 49.8
10 -16 16 1083.69 49.3
10 16 -16 1089.09 49.5
16 -16 -10 1027.1 49.6
16 -16 10 1003.1 49.2
16 -10 -16 1026.4 49.5
16 10 -16 1084.89 49.3
16 16 -10 1025.7 49.2
-16 -16 -12 78.69 9.1
-16 -16 12 105.29 9
-16 -12 -16 86.39 8.1
-16 -12 16 101.49 9.1
-12 -16 -16 88.59 9.1
-12 -16 16 96.39 9.2
12 -16 -16 86.09 9.3
12 -16 16 89.69 8.9
12 16 -16 98.69 8.8
16 -16 -12 76.49 8.9
16 -16 12 79.29 8.8
16 -12 -16 90.29 9.1
16 12 -16 95.19 8.7
16 16 -12 89.29 8.4
-16 -16 -14 497.65 27.1
-16 -16 14 494.05 26.4
-16 -14 16 485.05 26.5
-14 -16 16 505.85 26.4
14 -16 -16 507.05 26.9
14 16 -16 492.95 26.3
16 -16 -14 486.65 26.6
16 -16 14 515.15 27
16 -16 14 449.76 27.8
16 -14 -16 512.45 26.5
16 -14 16 604.14 25.9
16 -14 16 518.45 25.9
16 14 -16 473.75 26.1
16 16 -14 498.25 26.1
-16 -16 -16 1325.87 61.49
-16 -16 16 1195.48 60.69
16 -16 -16 1197.78 60.69
16 -16 16 1247.68 60.89
16 -16 16 1351.76 61.59
16 16 -16 1348.37 60.69
-17 -1 -1 2988 138.89
-17 -1 1 3095.79 138.99
-1 -17 -1 3214.68 139.09
-1 -17 1 3163.48 138.99
-1 -1 -17 2556.34 138.19
-1 1 -17 3154.98 138.39
1 -17 -1 3050.39 138.89
1 -17 1 3116.29 138.99
1 -1 -17 3035.5 138.59
1 1 -17 3081.99 138.59
17 -1 -1 3051.19 138.89
17 -1 1 2979.2 138.79
17 1 -1 2963 138.89
17 1 1 3088.39 138.89
-17 -1 -3 749.82 36.2
17 1 -3 776.62 36.4
-3 -17 -1 804.02 36.4
-17 -3 1 723.03 36.3
-1 -3 -17 824.22 35.9
-3 1 -17 807.72 35.4
1 -17 -3 758.62 36.3
-1 -17 3 793.62 36.3
1 -3 17 770.22 35.9
1 3 -17 742.23 35.9
3 -1 -17 763.82 36.2
3 -17 1 792.12 36.4
17 -3 -1 730.53 36.3
17 -1 3 709.43 36
17 3 1 744.13 36.2
-17 -1 3 801.32 36.5
17 -1 -3 755.02 36.4
17 -3 1 694.13 36.2
17 3 -1 704.53 36.2
17 1 3 707.13 36
3 -17 -1 758.82 36.3
3 1 -17 728.73 36
1 -17 3 804.92 36.4
-17 -3 -1 721.93 36.2
-3 -17 1 798.22 36.4
-3 -1 -17 838.22 35.4
-1 -3 17 728.23 36
-1 -17 -3 778.62 36.3
1 -3 -17 778.42 36.1
-1 3 -17 778.32 35.7
-3 3 -17 347.27 15.2
-3 -3 -17 329.67 15.3
-3 -3 17 282.27 16.1
-17 -3 -3 278.27 15.8
-17 -3 3 319.97 16.3
-3 -17 -3 325.07 16.2
-3 -17 3 313.17 16.2
17 3 -3 300.57 16.1
17 3 3 298.27 15.9
3 -17 -3 318.77 16.1
3 -17 3 330.27 16.2
3 -3 -17 294.37 16
3 3 -17 277.07 15.8
17 -3 -3 309.97 16.3
17 -3 3 293.77 15.9
5 -1 -17 36.6 4.7
-5 -17 -1 35.6 4.7
5 -17 1 36.3 4.7
-5 -1 17 62.69 5.4
-5 1 -17 33.7 2.3
17 1 -5 32.6 4.6
-1 -17 5 35.3 4.8
1 -17 -5 41.5 4.6
-1 -5 -17 33.1 4.1
17 -1 5 32.6 4.1
1 -5 17 41.4 4.4
17 -5 -1 38 4.8
1 5 -17 25.4 4
-17 -5 1 42.9 4.9
17 5 1 34.4 4.7
-5 -17 1 38.5 4.6
1 -17 5 37.6 4.8
5 -17 -1 40.5 4.6
-5 -1 -17 39.1 2.4
17 -1 -5 38.3 5
-17 -1 5 42.3 5.1
-1 -17 -5 38.5 4.8
17 1 5 39.2 4.2
-17 -5 -1 34.5 4.9
-1 -5 17 31.7 4.4
-1 5 -17 31.4 3.8
1 -5 -17 33.3 4.4
5 1 -17 31.2 4.4
17 -5 1 32.3 4.6
17 5 -1 31.4 4.6
-5 -3 17 51.39 5.7
3 -5 17 66.89 4.8
-3 -17 5 57.29 5.6
5 -17 3 60.69 5.7
5 -3 -17 52.89 5.5
-5 -17 -3 51.39 5.5
-17 -3 -5 65.69 5.5
17 5 3 48.1 5.1
-17 -5 3 60.99 5.9
17 -5 -3 57.89 5.8
-3 -5 -17 54.99 4.6
17 -3 5 51.89 4.9
3 5 -17 45.6 5
17 3 -5 56.89 5.5
3 -17 5 57.99 5.6
3 -5 -17 51.79 5.4
-3 5 -17 49.9 4.2
5 3 -17 59.79 5.5
17 5 -3 59.99 5.8
17 -3 -5 53.99 5.8
17 3 5 59.49 5.1
-3 -17 -5 65.89 5.9
-5 -3 -17 66.89 3.8
-17 -5 -3 41.4 5.1
-17 -3 5 55.29 5.8
17 -5 3 44.3 5.1
-5 -17 3 51.59 5.4
-3 -5 17 45.2 5.3
-17 -5 -5 1006.9 50.59
17 -5 5 1066.79 50.59
17 5 -5 1079.69 50.89
5 -5 -17 1120.19 50.99
5 -5 17 1103.59 49.8
5 5 -17 1027.9 50.69
17 -5 -5 1076.69 50.99
-5 -5 -17 1159.68 49.99
-5 -5 17 970.8 50.79
17 5 5 1098.79 50.59
-17 -5 5 1041.2 50.89
-5 -17 -5 1157.28 50.99
-5 -17 5 1116.49 50.89
5 -17 5 1136.69 50.99
-1 -7 -17 1404.26 62.89
17 -1 7 1371.76 62.39
-7 -1 17 1327.67 63.19
17 -7 -1 1320.07 63.19
-7 -17 -1 1426.66 63.19
1 -17 -7 1439.66 63.09
1 -7 17 1344.87 62.79
1 7 -17 1390.16 62.89
7 -17 1 1344.57 62.99
-17 -7 1 1417.16 63.29
17 1 -7 1372.96 63.09
7 -1 -17 1312.97 62.99
17 7 1 1195.68 62.79
-1 -17 7 1514.15 63.29
-1 -17 -7 1402.26 63.09
17 1 7 1429.96 62.49
-1 7 -17 1420.46 62.69
-17 -7 -1 1341.37 63.09
17 -1 -7 1382.56 63.19
17 -7 1 1186.38 62.99
17 7 -1 1280.27 62.99
-7 -17 1 1446.86 63.19
1 -7 -17 1215.98 62.79
1 -17 7 1418.16 63.19
-17 -1 7 1339.17 63.19
7 1 -17 1389.86 63.09
-1 -7 17 1146.89 62.69
-7 -17 -3 571.34 26.4
17 7 3 467.55 26
3 -7 17 551.04 25.8
17 3 -7 548.95 26.4
-17 -7 3 561.14 26.6
-7 -3 17 564.14 26.7
-17 -3 -7 525.35 25.8
-3 -17 7 589.84 26.5
7 -17 3 546.65 26.3
7 -3 -17 541.95 26.4
-3 -7 -17 542.95 25.9
17 -7 -3 523.15 26.5
17 -3 7 577.54 25.7
3 7 -17 497.15 26.1
-17 -3 7 539.85 26.6
17 7 -3 560.14 26.5
3 -17 7 557.64 26.4
17 -3 -7 549.05 26.6
17 -7 3 466.35 26.2
-17 -7 -3 485.55 26.2
17 3 7 553.84 25.8
-3 -17 -7 562.24 26.4
7 3 -17 495.75 26.1
-3 -7 17 441.06 26.1
-3 7 -17 638.14 25.9
3 -7 -17 470.35 26.1
-7 -17 3 558.84 26.4
-5 -17 7 9 4
7 17 -5 13.2 4
-5 -7 -17 8.9 3.1
17 -5 7 8 3.4
17 5 -7 8 4.1
-17 -7 5 12.7 4.3
-17 -5 -7 7.8 3.5
7 -17 5 9.3 4
-7 -5 17 10.5 4.3
5 -7 17 6.8 2.7
-7 -17 -5 8.8 3.8
17 7 5 6.4 3.6
5 7 -17 8.9 3.9
7 -5 -17 11.6 4.2
17 -7 -5 8.9 4.3
-5 -7 -17 9.8 2.9
-5 -17 -7 11.9 4.1
17 7 -5 9.5 3.9
-7 -17 5 13.3 3.8
-17 -7 -5 8 3.7
7 5 -17 11.2 4
17 -7 5 8.2 3.8
-17 -5 7 10.7 4.1
17 5 7 6.8 3.2
5 -17 7 12.2 4
17 -5 -7 11.6 4.2
-5 -7 17 8.1 4
5 -7 -17 8 4.1
-7 -5 -17 9.3 1.7
5 17 -7 8.2 4.1
-7 -5 -17 8 1.7
7 -7 -17 1678.03 76.39
7 -7 17 1699.33 74.89
7 7 -17 1670.33 76.19
7 17 -7 1713.53 76.29
-7 -17 -7 1502.35 75.99
17 -7 -7 1687.73 76.39
-7 -17 7 1729.73 76.29
17 7 -7 1690.73 76.29
-17 -7 -7 1589.14 75.89
-17 -7 7 1779.02 76.49
7 -17 7 1605.04 76.19
-7 -7 -17 1670.83 75.19
17 -7 7 1382.66 75.59
-7 -7 17 1674.73 76.39
-7 -7 -17 1583.84 75.19
17 -9 -1 2030.4 95.39
-1 -9 -17 2059.49 95.09
-17 -9 1 2093.09 95.29
9 -1 -17 2056.89 95.19
-9 -17 -1 2159.38 95.29
17 9 1 1910.21 95.09
-9 -1 17 2166.18 95.49
-1 -17 9 2189.88 95.29
17 1 -9 2106.39 95.29
17 -1 9 2177.68 94.19
1 9 -17 2008.2 94.99
1 -9 17 1967.9 94.89
-1 9 -17 2071.89 94.89
1 -9 -17 1796.12 94.99
17 9 -1 2022.4 95.19
-17 -1 9 2139.39 95.49
9 1 -17 2108.59 95.29
-1 -9 17 1797.12 94.89
1 -17 9 2131.09 95.29
-1 -17 -9 2178.48 95.29
17 1 9 2174.48 94.29
17 -1 -9 2154.88 95.39
-17 -9 -1 1969.8 95.19
17 -9 1 1864.61 95.19
-9 -17 1 2290.57 95.39
17 3 -9 1144.89 52.99
-9 -17 -3 1117.49 52.99
-3 -9 -17 1146.69 52.69
17 9 3 1147.89 52.99
-3 -17 9 1204.88 53.09
9 -17 3 1147.09 52.89
9 -3 -17 1131.99 52.99
-9 -3 17 1177.18 53.29
17 -9 -3 1097.69 53.09
3 9 -17 869.11 52.49
9 17 -3 1222.68 53.09
17 -3 9 1228.98 51.99
-17 -9 3 1148.19 53.09
3 -9 17 1158.98 52.59
-3 -9 17 1076.79 52.89
17 -9 3 897.41 52.69
-9 -17 3 1217.28 53.09
-17 -9 -3 1047.5 52.79
9 3 -17 1093.99 52.89
3 -9 -17 1004.8 52.89
17 3 9 1195.98 52.09
-17 -3 9 1188.48 53.19
3 -17 9 1175.98 52.99
-3 -17 -9 1186.58 52.99
17 -3 -9 1146.99 53.09
17 9 -3 1150.08 52.99
17 -9 -5 553.94 23.7
-17 -9 5 513.65 23.5
9 -17 5 443.36 23.2
-9 -17 -5 463.85 23.3
-5 -17 9 467.65 23.3
-17 -5 -9 478.15 22.6
17 5 -9 450.15 23.3
17 -5 9 488.15 22.3
9 17 -5 467.95 23.3
-5 -9 -17 447.06 22.6
-5 -9 -17 484.95 22.9
-9 -5 17 459.25 23.5
17 9 5 373.06 22.9
5 -9 17 457.25 22.6
5 9 -17 429.96 23.2
9 -5 -17 443.96 23.5
5 17 -9 472.85 23.3
17 -5 -9 480.15 23.4
5 -17 9 436.36 23.1
17 9 -5 487.45 23.4
17 5 9 569.94 22.6
-9 -17 5 475.05 23.2
-5 -9 17 440.26 23.4
-5 -17 -9 456.85 23.2
5 -9 -17 429.56 23.3
9 5 -17 459.55 23.3
-17 -9 -5 400.76 23
17 -9 5 435.26 23.3
-17 -5 9 468.25 23.5
17 -9 -7 2537.85 116.09
7 -9 17 2559.74 114.99
7 9 -17 2452.15 115.79
9 17 -7 2532.75 115.89
-7 -17 9 2648.54 115.99
-7 -9 -17 2495.95 115.19
-17 -7 -9 2431.86 115.29
17 9 7 2565.84 115.69
-9 -17 -7 2552.44 115.89
9 -17 7 2239.78 115.69
9 -7 -17 2512.15 116.09
-9 -7 17 2462.25 115.99
17 -7 9 2599.64 115.29
-7 -9 -17 2454.05 115.19
17 7 -9 2494.25 115.89
-17 -9 7 2589.34 115.99
17 -9 7 2467.15 115.59
17 -7 -9 2576.04 116.09
9 7 -17 2556.24 115.89
-7 -9 17 2492.05 115.99
7 17 -9 2476.75 115.89
17 7 9 2655.13 115.39
-9 -7 -17 2804.32 114.49
-9 -7 -17 2565.04 114.39
-17 -7 9 2591.44 116.09
-7 -17 -9 2628.74 115.99
7 -9 -17 2433.66 115.99
-17 -9 -7 2174.88 115.49
-9 -17 7 2504.85 115.89
7 -17 9 2549.15 115.89
17 9 -7 2516.15 115.89
-9 -17 9 3368.36 155.98
17 9 -9 3369.36 155.98
9 -9 -17 3532.45 156.28
-17 -9 9 3267.67 155.98
-9 -9 -17 3381.06 154.98
17 -9 9 3439.76 155.58
-17 -9 -9 3364.46 155.58
-9 -9 -17 3489.55 155.08
-9 -17 -9 3334.07 155.98
9 9 -17 3264.77 155.88
9 17 -9 3397.26 155.98
-9 -9 17 3431.66 156.18
9 -17 9 3499.35 155.98
17 -9 -9 3478.45 156.18
9 -9 17 3486.65 154.58
-1 -11 -17 503.75 27.3
11 -1 -17 562.14 27.3
-11 -17 -1 590.44 27.3
-11 -1 17 569.14 27.6
11 17 -1 585.94 27.3
17 11 1 483.65 27
17 1 -11 629.44 27.5
1 11 -17 502.25 27
17 -11 -1 515.75 27.5
-17 -11 1 586.64 27.4
-1 -17 11 563.04 27.3
1 -11 17 527.75 27
17 -1 -11 556.84 27.3
11 1 -17 554.24 27.2
1 -11 -17 490.65 27.3
-11 -17 1 562.14 27.2
-17 -11 -1 568.14 27.3
17 -11 1 487.65 27.3
-1 -11 17 523.55 27.1
-17 -1 11 572.04 27.5
-1 -17 -11 575.54 27.2
17 11 -1 572.34 27.3
-1 11 -17 581.84 27
1 -17 11 554.34 27.2
3 -11 17 4.7 3.8
17 3 -11 4.3 4.2
17 11 3 0.8 4.3
-3 -17 11 4.6 4
3 11 -17 1 3.9
-17 -11 3 5.5 4.2
-11 -3 17 2.6 4.5
11 -3 -17 0.6 4.3
17 -11 -3 6.3 4.5
11 17 -3 1.3 4.2
-11 -17 -3 2.8 4.1
11 3 -17 2.5 4.2
3 -17 11 2.8 4.1
17 -3 -11 3.3 4
17 11 -3 5.7 4.2
3 17 -11 1 4.1
-17 -11 -3 0.1 4
-3 -11 17 4.5 4.2
-17 -3 11 6.6 4.6
17 -11 3 0.6 4.7
-3 -17 -11 5.2 4.1
3 -11 -17 -0.1 4.6
-11 -17 3 3.2 3.8
17 5 -11 103.49 8.2
17 -5 11 126.69 6.1
-5 -11 -17 82.39 7.3
5 11 -17 95.79 7.9
-11 -17 -5 105.49 8.3
17 11 5 96.39 8
17 -11 -5 113.59 8.8
5 -11 17 91.69 7.2
-11 -5 17 99.79 8.6
17 -5 11 99.49 5.9
-5 -17 11 122.39 8.6
11 -17 5 98.39 8
11 17 -5 116.39 8.4
-17 -11 5 100.29 8.2
11 -5 -17 113.19 8.6
5 -17 11 86.59 7.8
5 -11 -17 97.59 8.4
-5 -17 -11 104.69 8.3
17 -5 -11 111.69 8.3
-11 -17 5 120.69 8.4
-5 -11 17 94.49 8.1
-17 -5 11 93.09 8.3
5 17 -11 124.99 8.6
11 5 -17 116.59 8.4
-17 -11 -5 122.99 8.7
17 -11 5 80.79 8
17 11 -5 125.39 8.5
-7 -11 -17 353.66 18.1
17 -7 11 312.67 17
-17 -11 7 359.26 18.6
-11 -7 17 342.37 18.8
11 -7 -17 358.56 18.8
17 11 7 342.37 18.5
7 -11 17 351.96 17.8
7 11 -17 337.77 18.6
17 7 -11 351.26 18.4
-17 -7 -11 357.96 17.7
11 17 -7 377.66 18.5
17 -7 11 363.96 17.2
-11 -17 -7 349.87 18.7
17 -11 -7 378.46 19.1
11 -17 7 349.27 18.5
-7 -17 11 359.16 18.6
17 -7 -11 357.26 18.7
11 7 -17 350.06 18.5
7 17 -11 360.76 18.5
-17 -7 11 350.46 18.7
17 -11 7 343.87 18.7
-11 -17 7 345.47 18.5
17 11 -7 353.46 18.6
-7 -11 17 337.47 18.6
7 -17 11 341.67 18.7
7 -11 -17 360.46 19
-7 -17 -11 324.77 18.6
-17 -11 -7 332.27 18.5
-17 -11 9 803.62 39
-11 -9 17 813.62 39.1
-9 -17 11 817.22 38.9
-17 -9 -11 781.42 38.3
9 -11 17 730.43 37.8
17 -9 11 822.42 38.1
9 11 -17 798.12 38.9
-9 -11 -17 770.42 38.2
11 -9 -17 839.22 39.2
-11 -17 -9 786.62 38.8
11 -17 9 795.22 39
17 -9 11 864.41 38.1
17 -11 -9 787.92 39
17 9 -11 797.72 38.8
11 17 -9 812.22 38.9
-11 -9 -17 725.43 37.3
9 -11 -17 833.22 39.3
9 17 -11 819.12 38.9
17 11 -9 798.52 38.9
-9 -17 -11 815.92 39
17 -9 -11 833.52 39.1
-17 -9 11 822.32 39
-9 -11 17 855.91 39.2
-11 -17 9 827.62 38.9
-11 -9 -17 830.82 37.5
9 -17 11 820.02 38.9
17 -11 9 830.12 38.8
-17 -11 -9 797.82 38.8
11 9 -17 839.52 39
17 -11 11 104.69 8.4
-11 -17 -11 121.59 9.4
-17 -11 11 138.19 9.5
-17 -11 -11 105.99 8.7
-11 -17 11 127.79 9.3
-11 -11 -17 120.89 8
-11 -11 17 127.39 9.7
11 17 -11 113.19 9
17 -11 -11 120.79 9.4
17 -11 11 102.49 8.2
17 11 -11 121.99 9.1
11 11 -17 119.29 9.2
11 -11 -17 117.89 9.6
11 -11 17 110.69 7.5
11 -17 11 132.39 9.6
1 13 -17 167.58 11.7
17 1 -13 209.28 11.9
13 -1 -17 195.58 11.9
-13 -1 17 194.08 12.3
13 17 -1 198.18 11.9
17 -13 -1 185.48 12.5
1 -13 17 188.78 11.9
-13 -17 -1 191.98 11.9
-1 -17 13 186.48 12
17 13 1 193.88 12
-17 -13 1 187.68 11.9
1 -13 -17 184.48 12.4
13 1 -17 181.68 11.8
17 -13 1 180.28 12.3
17 13 -1 176.08 11.8
-1 -13 17 187.88 11.9
-1 -17 -13 190.88 12
-13 -17 1 201.98 11.9
1 -17 13 201.48 12.2
-17 -1 13 195.78 12.3
13 17 1 192.18 11.9
17 -1 -13 187.68 11.8
-17 -13 -1 179.28 11.9
17 -13 -3 28.7 5.8
-13 -3 17 19.4 5.6
17 3 -13 30.6 5.1
-13 -17 -3 27.2 5.3
3 13 -17 20.5 5.1
-17 -13 3 30.2 5.3
-3 -13 -17 25.7 5.3
13 17 -3 30.4 5.3
13 -3 -17 24.1 5.3
3 -13 17 23.6 4.9
17 13 3 26.3 5.5
-3 -17 13 22.5 5.3
3 -17 13 27.9 5.3
17 -13 3 23.3 5.8
17 13 -3 20.8 5
3 -13 -17 29.9 5.9
13 3 -17 23.6 5.1
-13 -17 3 20.3 5
-17 -13 -3 27.2 5.3
17 -3 -13 22.3 5.1
-3 -13 17 20.6 5.2
-17 -3 13 31.4 5.6
-3 -17 -13 21.5 5
3 17 -13 22.6 5.2
17 13 5 335.17 18.1
17 -13 -5 324.27 18.3
-17 -13 5 333.07 17.9
-13 -17 -5 337.57 18.1
5 -13 17 330.97 17.6
-5 -13 -17 318.87 17.8
-13 -5 17 326.67 18.2
17 5 -13 336.07 17.9
13 -5 -17 334.47 18.1
5 13 -17 329.17 17.9
13 -17 5 351.16 18
13 17 -5 345.57 17.9
-5 -17 13 327.97 17.9
17 13 -5 334.57 17.9
17 -13 5 326.17 18.5
-5 -13 17 330.07 18.3
5 -13 -17 321.07 18.5
-13 -17 5 346.27 17.9
-17 -13 -5 327.07 18
-17 -5 13 317.37 18.1
17 -5 -13 335.17 18
-5 -17 -13 334.47 18.2
13 5 -17 315.07 17.8
5 17 -13 359.06 18
5 -17 13 339.77 18
17 7 -13 80.69 7.7
7 -13 17 73.59 7.1
-13 -17 -7 87.09 8
17 -13 -7 98.49 8.3
13 17 -7 99.89 8
-17 -7 -13 83.79 5.7
-17 -13 7 81.29 7.8
7 13 -17 86.49 7.9
-7 -17 13 90.79 8.1
-7 -13 -17 94.39 7.7
13 -7 -17 85.19 8.1
-13 -7 17 100.59 8.7
13 -17 7 103.19 8.2
-17 -13 -7 85.99 7.9
-13 -17 7 83.79 7.7
13 7 -17 94.89 8.1
17 -7 -13 107.89 8.1
17 -13 7 90.79 8.5
-17 -7 13 88.49 7.9
17 13 -7 99.09 8.1
7 17 -13 107.89 8.3
7 -17 13 98.19 8.1
7 -13 -17 98.29 8.7
-7 -17 -13 93.39 8.1
-7 -13 17 93.89 8.3
17 9 -13 293.37 16.9
-9 -13 -17 308.27 16.8
-17 -9 -13 310.67 16
-13 -17 -9 295.97 17.2
-17 -13 9 301.07 17
9 -13 17 281.27 16.3
13 -9 -17 308.57 17.4
17 -9 13 319.97 15
17 -9 13 266.97 14.9
9 13 -17 314.57 17.1
-13 -9 17 325.07 17.4
17 -13 -9 303.47 17.2
13 17 -9 310.97 16.9
13 -17 9 320.87 17.3
-9 -17 13 307.77 17.1
9 -13 -17 316.47 17.6
13 9 -17 302.37 17
17 -13 9 305.87 16.8
9 17 -13 310.47 17
-9 -17 -13 305.37 17.2
-17 -13 -9 297.87 17.1
-17 -9 13 296.37 17.1
9 -17 13 320.47 17.3
13 -17 -9 303.67 17.3
17 -9 -13 313.57 17.4
-9 -13 17 307.37 17.3
17 -13 9 307.87 17.6
17 13 -9 314.87 17
-13 -17 9 318.47 17
-13 -17 -11 14.9 5.8
11 -13 17 17 4.9
-11 -13 -17 16 5.3
17 -11 13 11.8 4.9
17 11 -13 14 5.3
-11 -17 13 15.3 5.7
11 -17 -13 13.1 6.2
13 -17 11 16.9 5.8
17 -11 13 15.1 4.7
-13 -11 17 16.4 6
-17 -13 11 18.1 5.4
-17 -11 -13 10.5 5.5
17 -13 -11 24.2 6.2
13 -11 -17 15.9 6.1
13 17 -11 23 5.3
11 13 -17 23.3 5.6
-13 -11 -17 11.7 4.3
11 -17 13 15.3 5.8
13 11 -17 16.7 5.6
17 13 -11 16.6 5.6
17 -13 11 11.4 5.5
-11 -17 -13 17.3 6
11 17 -13 19.4 5.2
13 -17 -11 20.6 6.2
17 -13 11 15.2 6.1
-17 -11 13 15.6 5.8
-17 -13 -11 15.7 5.8
17 -11 -13 13.7 5.8
-11 -13 17 17 6
-13 -17 11 19.1 5.2
11 -13 -17 20.1 6.4
17 -13 13 85.49 8.7
17 13 -13 95.19 8.5
13 -13 -17 84.09 8.9
13 -17 13 84.99 8.8
17 -13 -13 85.79 8.8
-13 -17 13 93.19 8.8
13 -17 -13 100.69 9
-13 -17 -13 92.49 9
-17 -13 -13 83.59 8.7
-17 -13 13 96.39 8.9
13 -13 17 95.49 7.2
17 -13 13 87.79 8.1
13 13 -17 89.19 8.6
13 17 -13 92.49 8.6
-13 -13 -17 92.29 8.2
-13 -13 17 102.99 9.1
13 -13 17 84.29 7.5
1 15 -17 940.51 46
15 17 -1 984.8 46.2
-15 -17 -1 991.6 46.1
17 1 -15 917.21 45.9
15 -1 -17 933.71 45.9
1 -15 17 1005 46
-17 -15 1 972.7 46.1
17 -15 -1 1006.1 46.6
-1 -17 15 960.3 46.1
17 15 1 981.9 46.3
17 15 -1 1008.9 46.1
1 -17 15 968 46
17 -15 1 933.71 46.4
-17 -15 -1 945.41 46
17 -1 -15 923.31 45.9
-1 -17 -15 957.6 46.1
15 17 1 940.11 46.1
15 1 -17 946.31 46
-1 -15 17 1000.4 46.2
-15 -17 1 986.9 46.1
-3 -17 15 276.37 15.9
-15 -3 17 267.57 16.1
-3 -15 -17 286.17 16
3 15 -17 273.67 15.9
17 3 -15 298.07 15.8
15 -3 -17 282.87 15.8
15 17 -3 292.47 15.8
17 -15 -3 268.77 16.3
-15 -17 -3 282.67 15.8
-17 -15 3 270.17 15.8
17 15 3 264.07 15.8
3 -15 17 287.97 15.9
3 -15 -17 265.77 16.5
17 15 -3 241.38 15.7
-15 -17 3 283.37 15.8
-3 -17 -15 281.27 16
-17 -3 15 273.27 16.1
3 -17 15 277.97 16.1
3 17 -15 282.87 15.8
15 3 -17 301.27 15.8
-3 -15 17 272.27 16.1
17 -15 3 294.77 16.7
17 -3 -15 259.97 15.6
-17 -15 -3 255.37 16
15 17 -5 8.2 5.1
17 5 -15 12.1 4.8
5 -15 17 11.9 5.2
-5 -15 -17 10.7 5.3
-15 -5 17 10 5.7
-17 -15 5 8.5 5.3
5 15 -17 7.1 5
-5 -17 15 10.9 5.5
-15 -17 -5 9.7 5.2
17 -15 -5 13.6 5.7
15 -5 -17 13 5.1
15 5 -17 11.7 4.8
5 17 -15 11.9 5.2
17 -5 -15 13.3 5.3
-15 -17 5 11.8 5
17 15 -5 14 4.9
15 -17 -5 12.9 5.7
-17 -15 -5 8.6 5.2
17 -15 5 12 6.6
-5 -15 17 9 5.5
-17 -5 15 14.1 5.7
5 -17 15 12.1 5.5
5 -15 -17 10.5 6.1
-5 -17 -15 9.8 5.7
17 -15 -7 494.75 26
-7 -15 -17 521.25 25.9
7 15 -17 514.15 25.9
7 -15 17 508.25 25.7
-15 -7 17 536.45 26.1
15 -17 7 524.95 26
15 17 -7 519.55 25.7
17 7 -15 482.75 25.5
15 -7 -17 480.65 25.8
-7 -17 15 502.35 25.8
-15 -17 -7 503.25 25.9
-17 -15 7 502.75 25.7
-15 -17 7 506.75 25.7
17 -7 -15 494.75 25.8
-17 -7 15 490.05 25.9
15 -17 -7 470.95 26
17 15 -7 480.45 25.6
-7 -17 -15 506.65 25.9
15 7 -17 511.45 25.7
17 -15 7 519.25 26.7
7 -15 -17 496.65 26.1
-17 -15 -7 497.35 25.9
7 17 -15 527.85 25.9
-7 -15 17 526.45 26.1
7 -17 15 509.15 25.9
9 -15 17 1156.28 53.79
-17 -15 9 1131.69 54.09
-15 -17 -9 1201.48 54.39
-9 -17 15 1166.08 54.29
9 -17 -15 1124.69 54.49
15 17 -9 1157.08 54.09
17 9 -15 1120.99 53.99
-15 -9 17 1074.39 54.09
15 -17 9 1134.09 54.09
-9 -15 -17 1151.78 53.99
15 -9 -17 1168.28 54.29
9 15 -17 1148.39 54.19
17 -15 -9 1150.48 54.29
9 -15 -17 1154.38 54.49
-9 -15 17 1165.18 54.39
-17 -15 -9 1101.69 54.09
17 -9 -15 1124.79 54.19
-17 -9 15 1112.29 54.09
-9 -17 -15 1211.58 54.29
-15 -17 9 1149.89 53.99
9 -17 15 1098.09 53.99
17 -15 9 1267.87 54.19
17 -15 9 1038.2 54.49
17 15 -9 1129.09 53.99
15 -17 -9 1064.89 54.19
15 9 -17 1117.59 53.99
9 17 -15 1174.18 54.19
11 -15 17 132.49 9.9
11 15 -17 119.59 9.9
-11 -17 15 133.19 10.4
15 -17 11 112.09 10
15 17 -11 124.59 9.8
-15 -11 17 113.29 10.3
17 11 -15 106.89 9.5
15 -11 -17 151.68 10.8
-11 -15 -17 123.09 10.2
-17 -15 11 141.69 10.2
-17 -11 -15 109.59 8.7
17 -15 -11 119.39 10.3
-15 -17 -11 118.09 10.2
11 -17 -15 109.49 10.3
17 -11 -15 115.09 10.2
-11 -15 17 111.39 10.1
11 -15 -17 129.19 10.6
-17 -11 15 133.39 10.2
-11 -17 -15 113.49 10
15 -17 -11 144.29 10.7
-17 -15 -11 105.89 9.9
17 -15 11 144.19 10.5
17 -15 11 126.89 10.9
17 15 -11 139.49 10
11 -17 15 115.19 9.8
11 17 -15 110.19 9.8
-15 -11 -17 130.19 8.2
-15 -17 11 124.99 10
15 11 -17 140.49 10
15 -17 13 20.4 7.5
15 17 -13 15.4 6.1
-15 -13 17 20.8 7.1
17 -13 15 14.8 5.6
17 -13 15 17.6 6.3
17 13 -15 15.7 6.3
13 15 -17 16.2 6.5
13 -17 -15 18.4 7.1
15 -13 -17 12.3 7
-17 -15 13 11 6.5
13 -15 17 21.2 6.9
-17 -13 -15 11.2 7.2
-13 -15 -17 18.9 7.5
-15 -17 -13 20.2 7.9
17 -15 -13 15.1 6.9
-13 -17 15 17.6 6.8
-17 -15 -13 16.1 7.6
-17 -13 15 20.4 6.8
-15 -13 -17 11.4 6.9
17 -13 -15 15.1 6.5
-13 -17 -15 21.3 7.6
13 -15 -17 21 7.2
15 -17 -13 16.5 6.9
13 -17 15 15.1 7
13 17 -15 18.8 6.1
-13 -15 17 19.1 6.8
15 13 -17 16 6.4
-15 -17 13 7.1 6.4
17 -15 13 20.3 7.4
17 -15 13 14.7 8.4
17 15 -13 9.9 6
-17 -15 -15 594.04 30.8
-17 -15 15 538.75 29.6
-15 -17 15 564.74 29.6
-15 -15 -17 605.24 30.5
-15 -15 17 559.44 29.8
15 -17 -15 558.04 29.8
15 -17 15 574.74 30.3
15 -15 -17 549.95 29.8
15 -15 17 582.94 29.3
15 -15 17 596.14 29.7
15 15 -17 543.25 29.3
15 17 -15 592.04 29.4
17 -15 -15 581.94 29.6
17 -15 15 553.64 30.7
17 15 -15 613.34 29.5
-17 -17 -1 1541.65 73.39
-17 -17 1 1579.94 73.39
-1 -17 -17 1629.74 73.49
-1 -17 17 1648.04 73.49
1 -17 17 1561.04 73.39
17 -17 -1 1520.65 73.69
17 -17 1 1542.15 73.79
17 -1 -17 1521.95 73.19
17 1 -17 1555.74 73.29
17 17 -1 1573.54 73.39
17 17 1 1583.74 73.39
-17 -17 -3 690.73 34.4
-17 -17 3 686.33 34.4
-17 -3 17 702.13 34.6
-3 -17 -17 725.93 34.6
-3 -17 17 726.23 34.6
3 -17 17 716.53 34.5
3 17 -17 708.53 34.4
17 -17 -3 666.53 34.9
17 -3 -17 699.43 34.4
17 3 -17 644.14 34.1
17 17 -3 706.53 34.4
17 17 3 714.13 34.6
-17 -17 -5 48.8 7.5
-17 -17 5 41.1 6.8
-17 -5 17 40.2 7.2
-5 -17 -17 44.9 7.4
-5 -17 17 45.5 7.1
5 -17 -17 54.79 8
5 -17 17 49.3 7.1
5 17 -17 39.1 6.8
17 -17 -5 49.8 7.5
17 -5 -17 44.6 6.9
17 5 -17 45.5 6.3
17 17 -5 47.6 6.6
-17 -17 -7 960.4 44.2
-17 -17 7 916.41 43.8
-17 -7 17 884.51 44
-7 -17 -17 952.2 44.2
-7 -17 17 918.51 44.3
7 -17 -17 921.71 44.5
7 -17 17 917.81 44
7 17 -17 924.71 44
17 -17 -7 912.51 44.2
17 -17 7 966.1 44.1
17 -7 -17 865.41 43.9
17 7 -17 904.01 43.8
17 17 -7 793.82 43.7
-17 -17 -9 1711.43 77.09
-17 -17 9 1635.84 76.69
-17 -9 17 1613.74 76.89
-9 -17 -17 1748.53 76.99
-9 -17 17 1555.74 76.79
9 -17 -17 1693.33 77.29
9 -17 17 1566.54 76.59
9 17 -17 1689.33 76.89
17 -17 -9 1580.64 76.89
17 -17 9 1709.23 76.89
17 -9 -17 1622.24 76.79
17 9 -17 1627.24 76.59
17 17 -9 1589.24 76.59
-17 -17 -11 372.96 21.7
-17 -17 11 363.06 20.6
-17 -11 17 380.86 20.9
-11 -17 -17 364.96 21.4
-11 -17 17 374.86 21
11 -17 -17 389.96 21.4
11 -17 17 375.16 21.7
11 17 -17 374.56 20.8
17 -17 -11 357.86 20.9
17 -17 11 353.56 21.7
17 -17 11 363.56 22.9
17 -11 -17 372.56 21.2
17 11 -17 371.86 20.5
17 17 -11 368.06 20.4
-17 -17 -13 128.69 12.1
-17 -17 13 125.59 10.9
-17 -13 -17 110.39 10.2
-17 -13 17 134.99 11.4
-13 -17 -17 133.19 12.3
-13 -17 17 146.89 11.4
13 -17 -17 140.79 11.7
13 17 -17 130.49 10.9
17 -17 -13 129.49 11.3
17 -17 13 121.39 12
17 -17 13 142.79 13.6
17 -13 -17 131.59 11.5
17 13 -17 113.49 10.6
17 17 -13 128.19 10.8
-17 -17 -15 673.23 35.6
-17 -15 -17 693.43 35.9
-15 -17 -17 687.53 35.8
15 -17 -17 591.54 33.9
15 17 -17 668.93 33.7
0 -18 0 4367.86 186.78
0 0 -18 4211.18 186.18
18 0 0 3695.43 186.38
-18 0 2 1356.26 58.99
-2 -18 0 1318.57 58.79
0 -2 -18 1278.97 58.29
0 2 -18 1246.78 58.19
2 -18 0 1349.36 58.79
18 0 -2 1228.38 58.69
18 0 2 1002.2 58.29
18 2 0 1153.58 58.59
0 -18 2 1337.27 58.79
2 0 -18 1199.08 58.39
18 -2 0 1179.88 58.69
0 -18 -2 1366.56 58.79
-2 0 -18 1361.26 57.99
-18 -2 0 1254.77 58.79
-2 -2 -18 674.73 29.8
-2 -18 2 692.83 30.6
-18 -2 -2 583.94 30.3
-18 -2 2 695.53 30.8
-2 -18 -2 662.13 30.5
18 -2 2 560.74 30.1
18 2 -2 635.44 30.5
18 2 2 588.34 30.3
-2 2 -18 675.03 29.7
2 -18 -2 630.94 30.3
2 -18 2 656.53 30.5
2 -2 -18 591.04 30.1
2 2 -18 567.44 30
18 -2 -2 597.24 30.4
0 -18 4 21.1 4.2
4 0 -18 12.5 3.9
18 -4 0 14.4 4.1
18 4 0 17.2 4
18 0 -4 11.7 4.2
18 0 4 16.7 3.8
0 -18 -4 13.7 4.1
-18 0 4 12.5 4.3
-4 -18 0 15.7 4.1
0 -4 -18 13.7 3.5
-4 0 -18 13.7 2.3
0 -4 18 21.3 3.9
0 4 -18 14.3 3.4
4 -18 0 13.8 3.6
-18 -4 0 17.5 4.4
2 4 -18 23.5 3.9
-18 -2 -4 19.5 4.1
4 -2 -18 17.9 4
-4 2 -18 20.1 2.5
18 2 -4 27.4 4.4
-18 -4 2 20.6 4.5
-2 -4 -18 20.8 3.5
4 -18 2 20.6 4.2
-4 -2 18 13 4.4
2 -4 18 20.3 3.6
18 -4 -2 25.5 4.6
18 -2 4 21.4 3.9
-4 -18 -2 22.9 4.3
2 -18 -4 24.2 4.2
18 4 2 20.4 4.3
-2 -18 4 25.9 4.5
-4 -2 -18 23.5 2.7
18 2 4 25.5 4.2
-2 4 -18 29.5 3.6
-18 -2 4 31.4 4.9
18 -2 -4 23 4.5
-2 -18 -4 26.2 4.4
4 -18 -2 17 4.1
2 -4 -18 18 4.1
2 -18 4 25.9 4.5
18 4 -2 19.8 4.3
-2 -4 18 20.8 4.3
-4 -18 2 25.5 4.6
18 -4 2 18.5 4.1
4 2 -18 12.5 3.8
-18 -4 -2 16.7 4.3
4 -18 4 928.31 41.8
-4 4 -18 900.11 40.5
18 4 -4 926.81 41.8
-4 -18 4 921.71 41.7
-4 -4 -18 952.9 40.8
-4 -4 18 828.22 41.6
-4 -18 -4 865.71 41.6
-18 -4 4 949.71 42
4 -4 -18 804.42 41.5
4 4 -18 802.72 41.4
18 -4 -4 931.61 41.9
18 -4 4 852.51 41.4
-18 -4 -4 785.62 41.4
18 4 4 837.82 41.3
-6 -18 0 460.45 23.1
18 6 0 424.86 23
0 -18 6 464.15 23.1
6 0 -18 390.86 22.8
18 -6 0 451.75 23.3
0 -18 -6 477.95 23.1
18 0 6 484.15 22.6
6 -18 0 492.55 23.1
-18 0 6 478.95 23.5
0 -6 18 441.36 22.8
-18 -6 0 471.05 23.2
0 6 -18 476.25 22.7
0 -6 -18 496.35 23
18 0 -6 470.35 23.2
18 -6 -2 95.39 8.2
2 -18 -6 139.29 8.6
2 6 -18 124.29 8.1
-2 -18 6 133.19 8.6
18 -2 6 107.19 7.5
-6 -18 -2 125.29 8.5
-18 -6 2 133.69 8.8
-2 -6 -18 116.69 7.8
6 -2 -18 113.49 8.5
6 -18 2 127.99 8.3
2 -6 18 131.09 8.1
-6 -2 18 114.49 8.7
18 2 -6 112.79 8.5
18 6 2 101.59 8.2
-2 -6 18 93.19 7.9
-2 -18 -6 129.59 8.6
-18 -2 6 123.99 8.7
-2 6 -18 139.79 7.8
18 -2 -6 131.09 8.7
18 -6 2 113.19 8.4
18 6 -2 121.29 8.5
18 2 6 112.29 7.6
-6 -18 2 129.19 8.5
2 -18 6 136.89 8.9
2 -6 -18 101.19 8.1
6 2 -18 103.49 7.9
-18 -6 -2 109.49 8.5
-4 -18 6 361.26 17
-18 -4 -6 303.97 16.6
-4 -6 -18 368.26 16.2
-18 -6 4 345.97 17.2
18 4 -6 335.57 17
6 -4 -18 312.77 17.1
4 -6 18 336.07 15.9
4 6 -18 268.27 16.6
18 -6 -4 342.17 17.2
-6 -18 -4 331.67 16.9
18 -4 6 340.17 16.5
18 6 4 289.47 16.7
-6 -4 18 291.27 17
6 -18 4 327.87 16.9
4 -18 6 356.56 17.1
-4 -6 18 275.77 16.8
-4 6 -18 337.37 15.8
18 -6 4 298.27 16.7
-6 -18 4 319.97 16.8
6 4 -18 277.07 16.5
-6 -4 -18 341.27 15
-6 -4 -18 286.77 15
18 -4 -6 337.87 17.2
-4 -18 -6 347.97 17.1
18 4 6 322.97 16.5
18 6 -4 327.77 17.1
-18 -4 6 327.57 17.1
4 -6 -18 287.87 16.9
-18 -6 -4 267.97 16.6
6 6 -18 17 4.4
-6 -6 18 8.4 4.5
18 6 6 15.6 4
18 6 -6 22.1 4.5
6 -18 6 23.6 4.7
18 -6 -6 14.5 4.6
-6 -6 -18 15.4 2.9
-18 -6 -6 14.1 4.2
-18 -6 6 13.4 4.5
-6 -18 -6 20.6 4.6
-6 -18 6 20.4 4.6
-6 -6 -18 19.6 2.9
6 -6 -18 15.2 4.5
18 -6 6 18.2 4.1
18 0 -8 1574.54 71.09
8 0 -18 1536.25 70.99
18 8 0 1542.75 70.99
-18 -8 0 1528.85 71.09
0 -18 -8 1501.05 70.89
0 8 -18 1524.55 70.69
0 -18 8 1529.35 70.99
18 -8 0 1374.76 70.89
-18 0 8 1634.04 71.29
-8 -18 0 1649.04 71.09
0 -8 -18 1439.16 70.79
0 -8 18 1419.26 70.69
18 0 8 1600.84 70.19
-2 -18 8 999.4 46
2 -8 18 966.1 45.5
8 -2 -18 973.8 46
8 -18 2 1019.7 45.9
-18 -8 2 973.3 46
18 2 -8 1021.9 46.1
18 8 2 843.72 45.7
-8 -18 -2 1045.2 46
18 -8 -2 1002.7 46.2
-2 -8 -18 978.6 45.7
2 8 -18 894.81 45.6
18 -2 8 854.11 45
-8 -2 18 949.11 46.1
-2 8 -18 1076.69 45.6
-2 -8 18 863.01 45.7
8 2 -18 938.41 45.8
-8 -18 2 1020.7 46
18 -8 2 845.62 45.9
18 8 -2 979.6 45.9
-18 -2 8 986.6 46.1
18 2 8 990.1 45.2
2 -8 -18 937.71 45.9
2 -18 8 1036.2 46.1
-2 -18 -8 1032.6 46
-18 -8 -2 915.91 45.8
18 -2 -8 1108.79 46.3
-8 -4 18 92.19 7.8
8 18 -4 107.39 7.7
4 -8 18 80.49 6.2
-18 -8 4 90.19 7.6
18 -8 -4 98.79 7.7
-8 -18 -4 93.89 7.4
18 8 4 63.89 6.7
-4 -8 -18 84.19 6.6
8 -4 -18 81.89 7.4
-4 -18 8 105.39 7.7
-18 -4 -8 95.89 6.7
4 8 -18 73.49 6.9
8 -18 4 89.79 7.3
18 4 -8 80.89 7
18 -4 8 90.29 6.3
-8 -18 4 95.99 7.3
-18 -8 -4 76.19 7.2
-4 -18 -8 93.69 7.5
4 -18 8 97.19 7.6
-4 -8 18 73.09 7.1
18 8 -4 89.09 7.4
18 -4 -8 97.99 7.6
8 4 -18 96.29 7.3
-18 -4 8 88.99 7.6
18 -8 4 81.89 7.3
18 4 8 91.99 6.5
4 -8 -18 74.89 7.1
18 8 6 603.74 34.7
8 -18 6 723.73 35.2
-18 -6 -8 699.23 34.7
-6 -8 -18 766.62 34.4
6 8 -18 691.73 35
18 -8 -6 730.83 35.3
8 -6 -18 709.33 35.2
-18 -8 6 751.42 35.3
-8 -6 18 715.43 35.4
-8 -18 -6 747.23 35.2
8 18 -6 769.02 35.2
6 -8 18 714.93 34
18 -6 8 751.92 34.6
18 6 -8 760.52 35.2
-6 -18 8 749.42 35.2
-6 -8 -18 780.12 34.3
18 -6 -8 778.62 35.4
-6 -8 18 703.63 35.3
8 6 -18 725.53 35.1
-6 -18 -8 776.62 35.2
18 -8 6 719.73 35
-8 -18 6 752.32 35.1
6 -8 -18 703.63 35.3
6 18 -8 738.93 35.1
6 -18 8 712.03 35.1
-18 -6 8 731.73 35.3
-18 -8 -6 680.43 34.9
18 8 -6 758.72 35.2
18 6 8 663.43 34.5
8 -18 8 2513.95 117.59
8 -8 -18 2531.05 117.79
-8 -8 18 2473.85 117.79
18 8 8 2602.84 117.29
-8 -8 -18 2546.55 116.49
8 18 -8 2582.24 117.59
8 8 -18 2456.45 117.49
-8 -18 -8 2597.24 117.69
18 -8 -8 2653.23 117.89
18 -8 8 2527.05 117.19
18 8 -8 2640.94 117.69
-18 -8 -8 2348.17 117.19
-18 -8 8 2507.05 117.69
8 -8 18 2669.63 115.99
-8 -18 8 2585.94 117.59
-8 -8 -18 2670.63 116.49
0 -10 -18 990.1 49.3
18 -10 0 996 49.5
18 10 0 1038.5 49.4
-18 0 10 1046.6 49.6
-10 -18 0 1103.29 49.4
0 -18 10 1095.99 49.4
10 0 -18 1068.69 49.4
0 10 -18 1000.3 49.1
18 0 -10 1069.09 49.4
18 0 10 1038.7 48
0 -18 -10 1065.09 49.3
-18 -10 0 1063.19 49.4
0 -10 18 1010.7 49.2
-10 -2 18 315.37 16.7
-10 -18 -2 298.07 16.1
2 10 -18 249.08 15.7
10 18 -2 323.67 16.3
-2 -10 -18 299.97 16.3
18 -10 -2 290.67 16.5
18 2 -10 292.87 16.1
2 -10 18 289.37 15.8
-18 -10 2 312.47 16.3
10 -2 -18 315.47 16.4
18 10 2 261.17 15.9
18 -2 10 310.17 14.5
-2 -18 10 318.57 16.2
18 -10 2 281.57 16.6
-2 -18 -10 293.77 16
-18 -10 -2 285.77 16.3
2 -18 10 292.87 16.1
-10 -18 2 318.37 16.2
10 2 -18 296.67 16.2
18 2 10 324.67 14.7
-18 -2 10 297.77 16.4
-2 -10 18 290.47 16.3
-2 10 -18 287.07 15.6
2 -10 -18 242.78 16.2
18 10 -2 288.47 16.2
18 -2 -10 319.37 16.4
-10 -4 18 0.6 4.6
-18 -10 4 3.7 4.3
10 -18 4 4.1 4.3
18 -4 10 2 2.6
18 4 -10 1.9 4.2
18 -10 -4 5.5 4.7
4 10 -18 5.4 4.2
-10 -18 -4 3 4.1
4 -10 18 1.4 3.6
-4 -10 -18 4 4.1
10 -4 -18 2.7 4.7
18 10 4 1.5 4.4
10 18 -4 3.1 3.6
-4 -18 10 1.4 3.9
18 -10 4 5.1 4.8
-18 -10 -4 1.5 4.3
-4 -18 -10 2.6 4.3
-18 -4 10 4.5 4.6
-4 -10 18 4 4.7
10 4 -18 3.1 4.2
18 4 10 1.6 2.9
-10 -18 4 2 4.1
4 -18 10 0.8 4.3
18 10 -4 0.6 4.1
4 -10 -18 1.9 4.4
18 -4 -10 0.9 4.5
6 10 -18 205.58 12.7
18 -6 10 223.68 11.6
18 6 -10 219.08 12.8
10 18 -6 219.68 12.7
-6 -18 10 231.38 13
-10 -18 -6 218.88 12.8
10 -18 6 197.08 12.6
-10 -6 18 223.18 13.3
18 10 6 184.88 12.8
-6 -10 -18 200.58 12.2
18 -10 -6 216.68 13.3
10 -6 -18 217.78 13
6 -10 18 212.28 11.9
-18 -10 6 227.88 13
-18 -6 -10 207.28 12
18 -10 6 208.68 13
-6 -10 18 227.18 13.1
-6 -18 -10 212.88 12.8
10 6 -18 207.48 12.7
6 18 -10 219.58 12.7
6 -10 -18 196.68 13.3
18 10 -6 220.08 12.8
-10 -18 6 216.38 12.6
6 -18 10 223.88 13.2
18 -6 -10 214.28 13
-18 -10 -6 182.38 12.7
-18 -6 10 216.28 13
10 -18 8 1165.58 54.09
18 8 -10 1103.79 53.79
-8 -10 -18 1117.69 53.09
10 -8 -18 1204.58 54.29
-8 -18 10 1193.08 53.99
8 10 -18 1144.09 53.99
18 10 8 1159.78 53.79
18 -10 -8 1160.08 54.19
-18 -8 -10 1151.68 53.49
-18 -10 8 1178.58 54.19
-10 -8 18 1154.98 54.29
10 18 -8 1113.39 53.89
-10 -18 -8 1150.78 53.99
18 -8 10 1148.99 53.29
8 -10 18 1180.88 52.89
-18 -10 -8 1118.99 53.79
18 -8 -10 1106.59 54.09
-10 -18 8 1177.38 53.99
-18 -8 10 1126.49 54.09
8 -10 -18 1047.2 53.99
8 -18 10 1142.19 53.89
10 8 -18 1154.38 54.09
18 -10 8 1132.49 53.79
8 18 -10 1220.28 53.99
18 10 -8 1145.99 53.99
-8 -10 18 1070.19 54.09
-8 -18 -10 1123.59 53.99
-10 -18 10 703.63 34.5
10 -18 10 746.53 34.7
-18 -10 10 663.63 34.5
10 10 -18 714.13 34.6
10 18 -10 712.33 34.5
18 -10 -10 712.43 34.7
18 -10 10 682.03 33.9
18 -10 10 707.33 34.2
-10 -18 -10 732.83 34.6
-10 -10 18 688.43 34.7
-18 -10 -10 709.63 34.3
-10 -10 -18 732.23 33.4
-10 -10 -18 703.03 33.5
18 10 -10 701.73 34.5
10 -10 -18 706.93 34.8
18 12 0 133.69 10.1
0 -18 -12 163.78 10.4
-18 -12 0 159.28 10.5
0 -18 12 148.09 10.2
18 -12 0 141.99 10.8
0 -12 18 169.38 10.5
0 12 -18 152.38 10.2
18 0 -12 152.08 10.3
12 0 -18 165.98 10.6
0 -12 -18 116.29 10.1
-12 -18 0 144.19 10.2
12 18 -2 9.8 4.4
-18 -12 2 9.3 4.7
18 12 2 11.4 5
2 -12 18 8.3 4.8
-12 -2 18 11.8 5.3
18 2 -12 10.2 4.7
12 -2 -18 11.8 4.7
-2 -12 -18 9.3 5
18 -12 -2 10.9 5.4
2 12 -18 11.2 4.5
-12 -18 -2 10.5 4.6
-2 -18 12 13.5 4.8
-18 -2 12 14 5.2
-2 -12 18 11.5 4.9
-12 -18 2 10.8 4.7
-18 -12 -2 12.9 4.9
2 -12 -18 12.7 5.4
12 2 -18 12.6 4.8
-2 -18 -12 11.6 4.8
18 12 -2 12.5 4.9
2 -18 12 11.9 4.8
18 -2 -12 14.3 4.7
18 -12 2 11.2 5.4
-18 -12 4 678.43 32.7
4 -12 18 648.44 32.3
12 -4 -18 656.23 32.7
12 -18 4 657.13 32.5
12 18 -4 696.83 32.6
-4 -18 12 690.63 32.6
4 12 -18 625.24 32.4
18 12 4 642.54 32.6
18 4 -12 655.43 32.4
-12 -4 18 680.93 32.9
-4 -12 -18 631.34 32.3
-12 -18 -4 663.53 32.6
18 -12 -4 678.53 33
-12 -18 4 673.93 32.5
-4 -18 -12 695.03 32.6
18 -4 -12 646.54 32.6
-4 -12 18 654.43 32.8
4 -18 12 677.53 32.7
4 18 -12 696.33 32.7
4 -12 -18 655.43 33.1
12 4 -18 672.73 32.6
-18 -4 12 665.73 32.8
18 -12 4 676.23 32.9
18 12 -4 692.13 32.7
-18 -12 -4 647.74 32.6
6 -12 18 80.59 7.1
12 -6 -18 94.39 8.1
18 6 -12 84.19 7.8
18 -12 -6 91.49 8.4
-6 -12 -18 88.09 7.4
-12 -6 18 75.09 8.2
6 12 -18 73.79 7.5
12 -18 6 102.09 8.2
12 18 -6 98.99 7.9
-12 -18 -6 84.39 7.8
-18 -12 6 92.39 8
18 12 6 97.69 8.3
-6 -18 12 119.29 8.4
6 18 -12 90.09 7.8
18 -6 -12 88.39 8
6 -18 12 77.59 7.7
-12 -18 6 82.89 7.7
-18 -12 -6 84.69 7.8
-6 -18 -12 90.39 8.1
18 -12 6 95.09 8.5
12 6 -18 91.49 7.8
18 12 -6 78.59 7.7
6 -12 -18 88.99 8.4
-6 -12 18 87.09 8.2
-18 -6 12 97.49 8.3
18 -12 -8 158.38 11.7
12 -18 8 190.18 12.3
-12 -18 -8 199.68 12.3
18 8 -12 179.18 11.7
8 -12 18 167.18 11.1
8 12 -18 175.38 11.8
18 -8 12 186.08 10
18 -8 12 187.48 9.9
-18 -12 8 182.38 11.9
-12 -8 18 183.38 12.2
-8 -18 12 178.78 11.8
12 -8 -18 193.68 12.2
12 18 -8 184.38 11.6
-8 -12 -18 128.59 10.5
-18 -8 -12 172.88 11
-18 -8 12 181.48 11.9
-18 -12 -8 200.68 12.2
8 -18 12 193.08 11.9
18 -12 8 154.88 11.6
-8 -18 -12 180.58 11.9
18 12 -8 173.08 11.7
18 -8 -12 184.68 12
8 18 -12 170.38 11.5
-8 -12 18 188.98 12.2
8 -12 -18 171.98 12.1
-12 -18 8 173.48 11.5
12 8 -18 175.08 11.7
-18 -12 10 26.3 5.9
-12 -10 18 30.3 6.1
18 -10 12 18 4.9
-18 -10 -12 21.4 5.6
18 -10 12 12.1 4.6
12 18 -10 25 5.6
-10 -12 -18 11.8 5
-10 -18 12 22.3 5.7
12 -10 -18 17.8 6.2
18 10 -12 28.8 5.7
12 -18 10 21.2 5.9
10 -12 18 15.4 4.5
10 12 -18 16 5.6
-12 -18 -10 23 6
18 -12 -10 22.8 6.1
10 -18 12 25 6.1
-10 -18 -12 20.7 5.9
-12 -18 10 25.1 5.6
18 -10 -12 17.3 5.7
12 10 -18 31.2 5.7
-12 -10 -18 20.3 3.3
18 -12 10 21.6 5.6
-10 -12 18 20.8 6.3
10 -12 -18 13.4 6
10 18 -12 20.8 5.5
18 -12 10 16.6 6
18 12 -10 16.5 5.4
-18 -10 12 19.9 5.9
-18 -12 -10 17.4 5.8
18 12 -12 151.48 10.5
18 -12 -12 142.59 10.8
18 -12 12 102.69 9.6
-18 -12 -12 121.49 10.2
-18 -12 12 154.08 10.8
-12 -18 -12 158.78 11
12 18 -12 147.59 10.5
12 -12 -18 160.88 11.3
12 -12 18 139.79 7.7
18 -12 12 110.89 9.5
12 -18 -12 137.49 11
12 -18 12 155.88 11.1
-12 -18 12 152.48 10.6
-12 -12 -18 137.09 9.4
-12 -12 18 137.99 10.9
12 -12 18 147.29 7.8
12 12 -18 143.79 10.4
-14 -18 0 205.38 12.7
0 -18 14 197.98 13.2
14 0 -18 207.78 12.8
-18 -14 0 195.88 13.2
0 -18 -14 195.28 12.8
18 -14 0 208.78 13.6
18 14 0 186.88 12.8
0 -14 -18 211.88 13.5
0 -14 18 215.18 13.1
0 14 -18 208.98 13
14 18 0 202.28 12.8
18 0 -14 202.28 12.6
14 -2 -18 6.3 4.9
18 2 -14 6.5 4.6
2 -14 18 10.6 5.1
18 -14 -2 9.3 5.8
2 14 -18 7.5 5.1
14 18 -2 5.2 4.9
18 14 2 3.9 5.1
-2 -18 14 5.5 5.1
-14 -18 -2 8.3 5
-14 -2 18 5.7 5.4
-18 -14 2 4.2 5
18 14 -2 7.2 5.1
18 -14 2 6.1 6.1
14 2 -18 6.3 4.9
2 -18 14 4.8 5.2
-18 -14 -2 4.1 5
-2 -14 18 8.9 5.3
2 -14 -18 -0.3 5.7
-2 -18 -14 5.9 5
18 -2 -14 12.4 4.9
-18 -2 14 6.1 5
-14 -18 2 6.1 4.6
14 18 -4 219.68 13.9
-14 -4 18 237.48 14.4
4 14 -18 239.88 14.2
-4 -18 14 229.98 14.1
4 -14 18 235.58 14.3
-14 -18 -4 260.47 14.7
-4 -14 -18 244.58 14.4
-18 -14 4 223.38 14.2
18 4 -14 218.68 13.9
14 -4 -18 235.08 14.2
18 -14 -4 242.78 14.6
18 14 4 240.38 14.5
14 4 -18 230.08 14.1
-4 -14 18 236.48 14.8
4 -14 -18 211.88 14.6
-4 -18 -14 252.97 14.7
18 -14 4 237.28 15.4
18 14 -4 233.98 14.1
4 -18 14 242.48 14.4
18 -4 -14 241.38 14.2
4 18 -14 235.08 14.1
-18 -4 14 223.18 14.3
-14 -18 4 232.78 14.1
-18 -14 -4 249.18 14.3
-18 -14 6 2.5 5.1
14 -6 -18 6.2 5.3
18 6 -14 6.1 4.8
14 -18 6 5.5 5.3
14 18 -6 0.5 5.1
18 -14 -6 4.3 5.3
-14 -6 18 7.9 5.5
6 14 -18 4.4 5.3
-14 -18 -6 3.6 5.4
6 -14 18 6.2 5.1
-6 -18 14 4.6 5.2
-6 -14 -18 9.1 5.5
6 -18 14 3.6 5.3
18 -6 -14 5.6 5.2
-6 -14 18 3.4 5.5
-14 -18 6 4 5
6 18 -14 4.8 5.1
18 -14 6 3.9 6.2
6 -14 -18 3.8 5.9
14 6 -18 1.8 4.9
-6 -18 -14 6.4 5.5
-18 -14 -6 11.7 5.8
18 14 -6 3.8 5.3
-18 -6 14 8.2 5.5
-8 -14 -18 247.08 15.3
14 -8 -18 257.47 15.7
-8 -18 14 263.07 15.2
8 -14 18 253.67 15
8 14 -18 237.58 15.1
-18 -14 8 266.57 15.1
18 -14 -8 233.38 15.5
-14 -18 -8 270.57 15.8
-14 -8 18 268.27 16
18 8 -14 235.78 14.8
14 18 -8 234.38 15
14 -18 8 263.27 15.5
-18 -8 14 251.87 15.4
14 -18 -8 254.17 15.4
8 18 -14 261.87 15.2
-8 -14 18 253.67 15.5
18 -14 8 261.97 16.4
18 14 -8 251.57 15
-18 -14 -8 256.67 15.6
8 -14 -18 263.27 16.1
8 -18 14 271.37 15.6
18 -8 -14 259.37 15.4
-14 -18 8 265.27 15.1
14 8 -18 248.58 15.1
-8 -18 -14 249.18 15.6
18 -14 -10 32.4 6.9
-14 -10 18 43 7.3
10 -18 -14 40.3 7.1
18 10 -14 46.3 6.6
-18 -10 -14 39 5.9
10 14 -18 45.7 6.9
14 -10 -18 44.4 7.3
14 18 -10 41.2 6.4
-10 -14 -18 27.9 6.5
-14 -18 -10 38.1 7.1
10 -14 18 31.1 6.3
-10 -18 14 32.6 6.7
-18 -14 10 44.1 6.7
14 -18 10 41.9 7.1
-10 -18 -14 34.2 7.1
10 -14 -18 38.3 7.3
-14 -18 10 45.5 6.3
-18 -10 14 23.2 6.5
-10 -14 18 33.7 7.2
18 -14 10 34.7 7.7
10 -18 14 32.6 6.6
18 14 -10 42.4 6.5
18 -10 -14 35.7 7
-18 -14 -10 30.1 7
10 18 -14 43.2 6.6
18 -14 10 37.3 7
14 -18 -10 35.6 7.2
14 10 -18 40.8 6.6
14 -12 -18 141.99 11.3
18 12 -14 119.29 10.4
-14 -12 18 151.88 11.5
-12 -18 14 153.18 11
-12 -14 -18 130.09 10.7
18 -12 14 148.59 9.3
12 -14 18 113.19 9.5
12 14 -18 132.49 10.8
18 -12 14 143.19 9.6
-14 -18 -12 139.19 11.2
18 -14 -12 130.59 10.9
12 -18 -14 153.28 11.3
14 -18 12 136.89 11.1
14 18 -12 150.48 10.8
-18 -14 12 154.08 11.2
-18 -12 14 139.09 11
12 -18 14 160.98 11.6
12 -14 -18 131.39 11.1
-12 -14 18 134.59 11.3
18 -14 12 146.29 10.9
14 -18 -12 148.79 11.1
18 -14 12 120.39 11.3
-14 -12 -18 138.79 9.2
-12 -18 -14 147.19 11.6
14 12 -18 155.38 11
-18 -14 -12 157.18 11.8
12 18 -14 163.48 11
18 -12 -14 131.29 10.9
18 14 -12 157.18 10.8
-14 -18 12 133.19 10.7
14 18 -14 26.9 6.9
-14 -18 14 22 7
18 -14 14 13.4 7.5
14 14 -18 21.1 6.8
-18 -14 -14 9.1 8.3
-14 -18 -14 22.3 8.2
-14 -14 -18 14.2 7.7
14 -18 -14 17.3 7
18 -14 -14 16.2 7
14 -18 14 13.5 7.9
14 -14 -18 20.8 7.2
18 14 -14 17.8 6.7
14 -14 18 14.6 5.1
18 -14 14 16.9 8.1
-18 -14 14 14.7 6.8
14 -14 18 16.1 4.8
-14 -14 18 16.3 7.4
0 -18 16 1213.18 54.89
16 0 -18 1120.39 54.49
-16 -18 0 1100.79 54.49
-18 -16 0 1168.88 54.79
18 0 -16 1110.29 54.39
18 -16 0 1196.88 55.29
0 -16 18 1126.79 54.69
18 16 0 1203.28 54.79
16 18 0 1136.79 54.59
16 18 -2 603.24 31.2
-18 -16 2 618.14 31.3
-2 -18 16 652.53 31.4
-2 -16 -18 614.64 31.4
18 -16 -2 603.54 31.7
2 16 -18 669.53 31.6
18 2 -16 594.44 31
-16 -18 -2 642.14 31.5
2 -16 18 627.74 31.4
16 -2 -18 612.44 31.3
18 16 2 658.33 31.6
-18 -2 16 610.24 31.5
-2 -18 -16 648.64 31.5
-18 -16 -2 613.54 31.3
2 -18 16 644.04 31.7
2 -16 -18 629.84 32.2
16 2 -18 611.44 31.1
18 -16 2 614.44 31.9
18 -2 -16 606.54 31.2
-2 -16 18 641.84 31.6
-16 -18 2 640.04 31.3
18 16 -2 669.43 31.6
4 16 -18 45.3 6.9
-4 -18 16 48.4 7.2
18 4 -16 43.7 6.6
16 -4 -18 47.2 6.8
4 -16 18 35.4 6.8
-16 -18 -4 41.7 7.1
18 16 4 51.79 7.6
-4 -16 -18 44.9 7
-16 -4 18 44.1 7.3
16 18 -4 44.9 6.8
-18 -16 4 43.6 6.8
18 -16 -4 48.6 7.5
18 16 -4 44.8 7
4 -16 -18 48.6 7.8
4 -18 16 46.5 7.2
16 4 -18 42.5 6.8
-18 -4 16 42.8 7.1
-18 -16 -4 48.7 7.3
-16 -18 4 48.4 6.7
16 -18 -4 38.8 7.5
-4 -18 -16 43 7.1
18 -4 -16 45.5 6.8
-4 -16 18 49.6 7.3
18 -16 4 45.2 8.2
4 18 -16 46.6 6.9
-6 -16 -18 122.59 10.3
-16 -6 18 137.59 10.6
6 -16 18 121.49 10
16 -18 6 155.68 10.8
16 18 -6 140.29 10
6 16 -18 147.49 10.6
-18 -16 6 137.19 10.2
-6 -18 16 119.69 10.1
16 -6 -18 122.59 10.2
-16 -18 -6 120.19 10.2
18 -16 -6 123.69 10.5
18 6 -16 126.59 9.8
18 -6 -16 116.99 9.9
-6 -16 18 122.29 10.4
16 -18 -6 116.99 10.4
-6 -18 -16 121.89 10.3
6 -18 16 120.79 10.4
18 16 -6 119.99 9.9
-16 -18 6 118.59 9.9
-18 -16 -6 124.69 10.4
-18 -6 16 114.59 10
6 -16 -18 127.69 10.8
16 6 -18 123.79 9.7
6 18 -16 118.99 9.9
18 -16 6 125.49 11
16 18 -8 1110.69 52.59
8 -16 18 1103.79 52.69
-18 -16 8 1080.39 52.69
-16 -8 18 1102.69 52.99
-8 -16 -18 1124.89 52.79
16 -8 -18 1102.69 52.89
8 -18 -16 1140.69 53.39
-16 -18 -8 1111.99 52.89
8 16 -18 1104.59 52.69
18 -16 -8 1111.59 52.99
16 -18 8 1091.79 52.89
-8 -18 16 1081.69 52.79
18 8 -16 1088.39 52.49
16 -18 -8 1092.49 52.99
18 16 -8 1098.69 52.59
-8 -18 -16 1169.48 52.99
-18 -8 16 1055.49 52.79
8 -16 -18 1092.09 53.09
-18 -16 -8 1105.59 52.89
18 -8 -16 1098.59 52.79
8 -18 16 1142.99 52.89
-16 -18 8 1071.09 52.59
8 18 -16 1131.89 52.79
-8 -16 18 1102.99 52.89
16 8 -18 1089.79 52.59
18 -16 8 1123.59 53.49
18 -16 8 1145.39 52.89
-16 -18 -10 570.44 29.2
-10 -16 -18 546.75 29
-16 -10 18 548.05 28.9
16 18 -10 568.34 28.4
10 16 -18 568.84 28.8
18 10 -16 552.14 28.5
10 -18 -16 526.05 28.9
-18 -16 10 529.45 28.4
16 -10 -18 556.54 28.8
16 -18 10 597.74 29.2
-10 -18 16 535.15 28.7
18 -16 -10 532.45 28.8
18 -16 10 606.54 30.1
-16 -18 10 572.64 28.4
10 -16 -18 585.84 29.3
18 -10 -16 559.04 28.7
10 -18 16 567.24 29.1
10 18 -16 559.74 28.5
16 -18 -10 528.35 28.8
-10 -16 18 524.05 28.8
16 10 -18 559.44 28.5
18 16 -10 563.44 28.3
18 -16 10 561.54 29
-18 -16 -10 569.64 29.3
-18 -10 16 546.35 28.7
-10 -18 -16 590.84 29.3
18 12 -16 15 6.5
12 16 -18 15.6 7.1
16 -12 -18 18.9 7.2
16 -18 12 20.1 8.2
16 18 -12 16.2 7
-16 -18 -12 13.3 8.4
-16 -12 18 15.1 7.6
-12 -16 -18 15.2 8.3
-12 -18 16 17.8 7.5
-18 -12 -16 16.8 6.8
12 -16 18 14.3 8.1
-18 -16 12 16.5 7
12 -18 -16 22.7 7.5
18 -16 -12 16 7.1
16 -18 -12 13.3 7.3
16 12 -18 11.9 7
12 18 -16 18.5 6.8
18 -16 12 19.4 8.3
18 -16 12 18.1 9.5
18 16 -12 14.3 6.6
-12 -16 18 17.4 7.4
12 -16 -18 15.8 7.8
-12 -18 -16 17.4 8.5
-16 -18 12 19 7
-18 -12 16 23 7.2
12 -18 16 19.8 8.3
18 -12 -16 15.7 7.6
-18 -16 -12 22.2 8.5
18 14 -16 136.29 11.2
-14 -18 16 125.89 11.6
16 18 -14 135.89 11.3
18 -16 -14 135.99 11.7
16 -18 14 118.09 12.5
-18 -14 -16 128.59 13
-16 -18 -14 153.48 13.5
-14 -16 -18 118.39 12.9
14 16 -18 137.09 11.4
16 -14 -18 153.78 12
14 -16 18 114.99 12
14 -16 18 130.79 13.2
-16 -14 18 131.69 11.8
14 -18 -16 126.79 11.8
-16 -14 -18 134.29 12
-14 -16 18 122.69 11.8
18 -14 -16 128.99 11.7
-18 -16 -14 108.39 12.8
14 -18 16 134.59 12.8
14 18 -16 134.09 11.4
14 -16 -18 136.89 11.9
16 14 -18 118.29 11
16 -18 -14 152.08 12
18 -16 14 123.49 12.6
18 -16 14 127.69 13.9
18 16 -14 135.09 11
-16 -18 -16 639.34 35.7
-18 -18 0 902.01 47.1
0 -18 -18 1032.1 47.5
0 -18 18 986.4 47.3
18 -18 0 1022.7 48.2
18 0 -18 932.81 47.1
18 18 0 1024.7 47.4
-18 -18 -2 449.76 24.6
-18 -18 2 463.05 24.3
-2 -18 -18 474.05 24.8
-2 -18 18 481.65 24.9
2 -18 18 446.66 24.7
18 -18 -2 423.56 24.9
18 -18 2 479.65 25.5
18 -2 -18 438.46 24.1
18 2 -18 448.36 24.2
18 18 -2 491.65 24.5
18 18 2 491.45 25.1
-18 -18 -4 1.8 6.5
-18 -18 4 0.9 6.2
-18 -4 18 -3.1 6.4
-4 -18 -18 7.2 7
-4 -18 18 2.6 6.5
4 -18 -18 0.8 7.5
4 -18 18 1.9 7.1
4 18 -18 0.2 6.4
18 -18 -4 -0.2 6.8
18 -18 4 -3.3 7.7
18 -4 -18 0.8 5.9
18 4 -18 -0.2 5.7
18 18 -4 -4.2 6.2
-18 -18 -6 80.09 9.2
-18 -18 6 68.19 8.5
-18 -6 18 67.59 8.6
-6 -18 -18 80.59 9.5
-6 -18 18 80.39 9.3
6 -18 -18 82.69 10.1
6 -18 18 82.79 9.5
6 18 -18 85.29 9
18 -18 -6 79.19 9.5
18 -18 6 82.49 9.2
18 -18 6 67.89 10.4
18 -6 -18 81.29 8.6
18 6 -18 77.49 8.2
18 18 -6 78.79 8.7
-18 -18 -8 767.82 37.3
-18 -18 8 734.83 36.8
-18 -8 18 720.03 37.1
-8 -18 -18 775.42 37.5
-8 -18 18 756.12 37.2
8 -18 -18 710.83 37.4
8 -18 18 714.03 37.1
8 18 -18 789.52 37
18 -18 -8 696.23 37
18 -18 8 761.12 38.4
18 -8 -18 760.12 37.1
18 8 -18 734.43 36.6
18 18 -8 732.73 36.6
-18 -18 -10 319.37 19.6
-18 -18 10 294.27 18.2
-18 -10 18 283.07 18.7
-10 -18 -18 301.47 20
-10 -18 18 292.27 18.7
10 -18 -18 296.07 19
10 18 -18 312.77 18.7
18 -18 -10 295.87 18.6
18 -18 10 322.47 20.3
18 -18 10 284.67 19.6
18 -10 -18 287.17 18.4
18 10 -18 306.77 18.1
18 18 -10 307.87 18.2
-18 -18 -12 6.3 9.5
-12 -18 -18 5.3 9.8
-12 -18 18 4.8 7.9
12 -18 -18 4.1 8.1
12 -18 18 2.7 10.4
12 18 -18 7.3 7.5
18 -18 -12 -1.3 8
18 -18 12 7.1 10
18 -18 12 3.6 11.5
18 -12 -18 5.6 8.1
18 12 -18 0.7 7
18 18 -12 3.2 7.3
-18 -18 -14 40.6 12.8
-14 -18 -18 37.2 14.5
-19 -1 -1 1114.99 53.89
-19 -1 1 1206.58 54.09
-1 -19 -1 1163.38 53.79
-1 -19 1 1201.68 53.79
-1 -1 -19 1257.97 53.29
-1 1 -19 1181.38 53.19
1 -19 -1 1200.08 53.79
1 -19 1 1238.18 53.89
1 -1 -19 1178.18 53.39
1 1 -19 1280.57 53.59
19 -1 -1 1089.09 53.69
19 -1 1 906.71 53.39
19 1 -1 1082.99 53.69
19 1 1 961.5 53.39
1 -19 -3 36.9 5
-3 -19 -1 44 5.1
3 -1 -19 38.3 4.9
-1 -3 -19 45.5 4.6
19 -3 -1 35.4 5.1
-1 -19 3 43.1 5.2
-3 1 -19 45.3 3.8
1 3 -19 38 4.6
19 1 -3 38.7 5.4
3 -19 1 41.3 5.1
-19 -3 1 44.8 5.7
19 -1 3 32 4.8
19 3 1 28.4 4.9
3 -19 -1 43.5 5.1
1 -3 -19 38.5 4.7
-1 -19 -3 43.8 5.2
-1 3 -19 45.4 4.4
-19 -1 3 36.5 5.5
1 -19 3 41.9 5.1
-3 -19 1 48.1 5.2
3 1 -19 43.5 4.9
-1 -3 19 31.4 4.9
19 -3 1 26.6 4.9
19 3 -1 33.4 5
19 1 3 36.2 4.8
19 -1 -3 43.6 5.6
-3 -1 -19 42.6 3.8
-19 -3 -1 40.8 5.4
-3 -19 -3 1033.4 47.3
-3 -3 -19 1054.99 46.5
-3 -3 19 956.9 47.3
-3 3 -19 1115.59 46.5
-3 -19 3 1103.59 47.5
-19 -3 -3 889.21 47.1
-19 -3 3 1054.09 47.6
3 3 -19 989.9 47.1
19 -3 -3 1038.2 47.5
19 -3 3 852.11 47
19 3 -3 1050.29 47.4
19 3 3 892.41 47
3 -19 -3 1003.2 47.2
3 -19 3 1066.19 47.4
3 -3 -19 937.91 47.1
1 5 -19 7.1 3.6
5 -1 -19 3 3.7
5 -19 1 5.1 3.5
-1 -19 5 5.6 3.8
19 -1 5 3.8 3.6
19 -5 -1 5.5 4.3
19 5 1 2.9 4.1
1 -5 19 6.1 3.6
-19 -5 1 4.4 4.2
-5 -19 -1 9.2 4.1
-1 -5 -19 6.4 3.6
19 1 -5 3.6 4
1 -19 -5 6.7 3.7
1 -19 5 7.1 3.9
-1 5 -19 4.6 3.3
19 -1 -5 4.4 4.2
-1 -5 19 8.8 4.1
1 -5 -19 4.1 3.7
5 -19 -1 4.9 3.8
5 1 -19 0.4 3.6
-19 -1 5 9 4.4
19 -5 1 1.2 4
-5 -19 1 8.3 3.6
19 5 -1 4.6 4
-19 -5 -1 5.6 4.4
19 1 5 6.6 3.6
-5 -1 -19 5.9 1.4
-1 -19 -5 6.5 3.6
-5 -3 19 719.63 36.2
19 3 -5 769.92 36.2
-19 -5 3 831.32 36.5
-3 -5 -19 799.72 35.5
19 5 3 642.54 35.8
-3 -19 5 803.52 36.2
3 5 -19 726.83 35.9
5 -3 -19 693.53 36
5 -19 3 792.92 36.2
3 -5 19 765.82 35.4
19 -3 5 763.12 35.8
19 -5 -3 792.02 36.4
-19 -3 -5 689.93 35.8
3 -19 -5 785.22 36.1
-5 -19 -3 823.32 36.2
5 -19 -3 793.12 36.1
-5 -3 -19 603.74 34.5
-3 -19 -5 785.72 36.1
19 -5 3 717.83 36
19 5 -3 761.62 36.2
5 3 -19 721.43 36
-19 -5 -3 702.33 36.1
19 3 5 749.53 35.8
3 -5 -19 707.03 35.9
19 -3 -5 800.72 36.4
3 -19 5 784.42 36.2
-3 -5 19 692.73 36
-19 -3 5 785.02 36.4
-5 -19 3 789.92 36.1
-3 5 -19 804.02 35.3
5 -5 -19 683.93 36.3
19 5 -5 818.92 36.6
19 -5 5 740.33 36.2
5 -19 5 827.32 36.6
19 5 5 717.53 36.1
5 5 -19 621.94 36
19 -5 -5 759.62 36.6
-19 -5 -5 749.23 36.4
-19 -5 5 802.12 36.8
-5 -19 -5 799.42 36.6
-5 -19 5 774.52 36.4
-5 -5 -19 817.52 35.3
-5 -5 19 742.13 36.6
1 -7 19 352.96 18.2
1 -19 -7 374.86 18.4
7 -1 -19 336.57 18.3
-1 -7 -19 354.06 18.2
19 -7 -1 323.97 18.7
7 -19 1 378.76 18.5
19 1 -7 368.16 18.6
19 -1 7 368.56 17.9
-7 -19 -1 367.86 18.4
19 7 1 341.87 18.5
1 7 -19 308.47 18
-19 -7 1 386.46 18.9
-1 -19 7 372.76 18.5
-1 7 -19 374.86 18
19 1 7 318.27 17.7
-19 -1 7 379.46 18.9
19 7 -1 333.77 18.4
-19 -7 -1 362.16 18.6
7 1 -19 326.37 18.4
1 -7 -19 332.17 18.3
7 -19 -1 363.96 18.4
-1 -19 -7 356.16 18.4
19 -1 -7 373.96 18.7
1 -19 7 371.76 18.6
19 -7 1 280.17 18.4
-7 -19 1 362.16 18.4
-1 -7 19 351.86 18.4
7 -19 3 108.49 7.7
-3 -7 -19 79.09 6.6
3 -7 19 86.59 6.7
3 7 -19 87.89 7.3
19 -7 -3 92.39 8.1
-19 -7 3 108.29 8.2
-7 -3 19 86.89 7.9
19 7 3 85.69 7.5
-3 -19 7 94.29 7.4
19 3 -7 94.39 7.5
19 -3 7 85.39 6.6
7 -3 -19 91.19 7.6
-7 -19 -3 106.99 7.8
-7 -19 3 101.39 7.6
-3 7 -19 97.99 6.5
19 -3 -7 85.59 7.5
19 3 7 93.49 6.9
-19 -3 7 92.79 7.8
3 -19 7 95.59 7.6
-3 -7 19 88.09 7.6
7 3 -19 91.79 7.6
-19 -7 -3 85.49 7.5
19 -7 3 81.09 7.5
19 7 -3 85.89 7.6
-3 -19 -7 110.29 8.1
3 -7 -19 70.59 7.2
-5 -7 -19 59.89 5.2
-5 -7 -19 62.89 5.1
5 -7 19 47.8 4.6
-5 -19 7 58.09 6.2
19 7 5 56.59 5.9
7 -5 -19 48.2 6.3
19 5 -7 62.79 6.3
19 -7 -5 60.59 6.6
-19 -5 -7 59.49 6.1
19 -5 7 49.9 5.5
5 7 -19 52.89 6.1
-7 -5 19 50.59 6.5
-19 -7 5 71.49 6.8
7 -19 5 54.49 6.2
-7 -19 -5 61.99 6.2
-7 -19 5 67.09 6.3
5 -7 -19 59.19 6.7
-5 -7 19 59.79 6.5
-5 -19 -7 67.39 6.4
19 -7 5 53.59 6
5 -19 7 65.89 6.3
19 5 7 60.69 5.9
19 7 -5 61.29 6.4
-19 -5 7 63.99 6.6
-19 -7 -5 58.29 6.4
19 -5 -7 57.39 6.5
7 5 -19 53.09 6
-7 -19 7 337.17 17.7
19 7 -7 334.07 17.8
7 19 -7 337.47 17.8
-7 -7 -19 349.57 16.2
-7 -7 -19 323.07 16.2
-7 -7 19 327.67 18.1
7 -19 7 334.27 17.9
7 -7 -19 341.07 18.3
19 -7 -7 326.57 18
19 -7 7 336.17 17.6
-19 -7 -7 307.87 17.6
19 7 7 325.37 17.5
-7 -19 -7 336.27 17.9
-19 -7 7 327.07 17.9
7 7 -19 325.17 17.8
1 -9 19 435.56 22.6
19 -9 -1 420.16 23
1 -19 -9 463.05 22.8
-1 -19 9 461.25 22.9
19 9 1 394.96 22.7
9 -1 -19 476.95 23
9 -19 1 450.65 22.8
-19 -9 1 440.16 23.1
19 -1 9 472.85 21.8
1 9 -19 424.66 22.6
-1 -9 -19 435.26 22.8
19 1 -9 476.65 22.9
-9 -19 -1 469.55 22.8
-9 -19 1 471.75 22.9
19 -9 1 420.96 23.1
1 -19 9 499.15 23.1
19 1 9 478.75 21.8
-1 -19 -9 537.55 23
-1 -9 19 435.26 22.8
-19 -9 -1 423.76 23.1
19 -1 -9 452.85 23
-19 -1 9 448.46 23.2
-1 9 -19 423.26 22.4
1 -9 -19 401.46 22.8
9 1 -19 441.36 23
19 9 -1 435.46 22.9
3 9 -19 14.5 4.7
-3 -9 -19 14.7 4.5
19 9 3 17.7 5
-19 -9 3 17 5
-9 -3 19 18.3 5.3
-3 -19 9 20.9 4.7
-9 -19 -3 21.9 4.8
9 -3 -19 18.9 4.9
19 3 -9 19.7 4.9
9 -19 3 22.6 4.9
19 -9 -3 17.7 5.4
3 -9 19 14.5 4.3
19 -3 9 17.6 3.6
-3 -9 19 14.5 4.9
-19 -3 9 14.9 5
19 -9 3 15.8 5.3
3 -19 9 17.5 5
-9 -19 3 21 4.6
19 9 -3 14.7 4.9
3 -9 -19 10 4.8
-19 -9 -3 18.3 5.2
19 3 9 19.6 3.8
9 3 -19 15.5 4.8
19 -3 -9 18.7 5.1
-3 -19 -9 19 4.8
19 9 5 13.5 4.8
9 19 -5 18.4 4.8
9 -5 -19 10.7 5
19 -9 -5 19.1 5.3
19 5 -9 16.1 4.6
19 -5 9 11.7 3.8
-5 -19 9 18.5 4.6
-9 -5 19 12.6 5.2
5 9 -19 15.1 4.9
-5 -9 -19 14.8 4
9 -19 5 15.6 4.7
-19 -5 -9 13.3 4.3
-9 -19 -5 11.9 4.7
-19 -9 5 17 5.2
5 -9 19 12.5 3.8
-5 -9 19 11.5 5.2
-19 -9 -5 14.5 5.1
19 5 9 14.4 4.1
19 9 -5 13.9 5
19 -5 -9 16.6 5.3
-9 -19 5 15.4 4.8
-5 -19 -9 16.8 5.1
5 -9 -19 13.3 5.1
-19 -5 9 15.3 4.8
19 -9 5 10.4 5.3
9 5 -19 13 4.8
5 -19 9 20.6 5.2
-19 -9 7 535.25 26.1
7 -9 19 515.25 24.5
-7 -19 9 513.85 25.8
9 -7 -19 503.55 26.1
-9 -7 19 509.55 26.4
19 -9 -7 507.75 26.1
-7 -9 -19 514.75 24.9
-9 -19 -7 509.45 25.9
19 9 7 463.85 25.7
-7 -9 -19 502.05 25
7 9 -19 492.95 25.8
-19 -7 -9 478.25 25.5
9 -19 7 516.35 26.2
9 19 -7 511.85 25.8
19 7 -9 522.55 25.9
19 -7 9 559.64 25.4
19 7 9 526.15 25.4
-9 -19 7 519.55 25.8
19 9 -7 505.65 25.9
-19 -9 -7 520.95 26
-7 -9 19 542.65 26.2
7 19 -9 531.35 25.8
-7 -19 -9 500.25 26
7 -9 -19 537.65 26.2
7 -19 9 526.15 26.1
-19 -7 9 605.04 26.2
19 -7 -9 501.15 26
9 7 -19 476.25 25.8
19 -9 7 480.55 25.8
-19 -9 9 692.53 32.9
-9 -19 -9 670.43 32.9
19 -9 -9 685.93 33
19 -9 9 633.94 32.2
9 19 -9 705.23 32.6
9 9 -19 637.84 32.6
-9 -19 9 676.83 32.6
9 -9 -19 668.53 32.9
-19 -9 -9 628.34 32.4
-9 -9 -19 656.93 31.2
-9 -9 19 650.03 33
9 -19 9 688.13 32.9
19 9 -9 656.13 32.6
19 -11 -1 5.7 5.3
19 1 -11 3.2 4.2
1 -11 19 2.7 4.6
-19 -11 1 1.1 4.8
-11 -19 -1 1.5 4.2
1 11 -19 1.6 4.2
11 -1 -19 -1.1 4.6
1 -19 -11 -2.5 4.2
-1 -11 -19 2.6 5
-1 -19 11 1.8 4.6
19 11 1 4.3 4.7
1 -11 -19 1.6 4.8
-19 -11 -1 2.6 4.7
1 -19 11 2.3 4.6
-1 -11 19 -0.1 4.7
11 1 -19 3.4 4.6
-19 -1 11 0.5 5.1
-1 11 -19 5.2 4.4
-11 -19 1 0 4.1
-1 -19 -11 -1.5 4.3
19 -1 -11 -2.4 4.5
19 -11 1 2 5.1
19 11 -1 1.3 4.7
-3 -19 11 779.92 37.8
19 -3 11 788.42 35.8
-19 -11 3 786.92 37.9
3 11 -19 777.92 37.8
-11 -19 -3 815.32 37.9
11 -3 -19 725.13 37.8
11 -19 3 800.52 37.8
11 19 -3 801.52 37.8
19 3 -11 782.02 37.8
-11 -3 19 792.92 38.2
19 -11 -3 765.52 38
3 -11 19 737.73 37.4
19 11 3 807.72 37.9
11 3 -19 756.12 37.7
-19 -3 11 768.72 37.9
19 -3 -11 755.12 37.8
-3 -19 -11 774.82 37.8
-11 -19 3 833.62 37.9
-19 -11 -3 796.52 38
3 -11 -19 756.42 37.9
19 11 -3 798.72 37.8
19 -11 3 804.82 38.2
-3 -11 19 787.32 37.9
3 -19 11 783.02 37.9
-19 -11 5 435.46 23.7
11 -19 5 439.66 23.6
11 19 -5 460.85 23.6
19 -5 11 453.25 22
-11 -5 19 465.25 24.1
-11 -19 -5 468.65 23.7
19 -5 11 475.25 22
19 5 -11 462.45 23.6
5 -11 19 436.76 23.1
-5 -19 11 489.75 23.8
-5 -11 -19 467.35 23.4
11 -5 -19 445.86 23.9
19 11 5 436.26 23.7
19 -11 -5 464.05 24.1
5 11 -19 467.85 23.7
5 -19 11 536.05 24
11 5 -19 453.85 23.7
19 -5 -11 459.15 23.8
5 -11 -19 469.55 24.1
-5 -11 19 477.85 24.1
19 11 -5 485.25 23.8
-11 -19 5 470.95 23.5
-19 -11 -5 464.25 23.8
19 -11 5 454.05 24
-5 -19 -11 464.15 23.9
-19 -5 11 459.75 23.9
19 -11 -7 6 5.3
7 -11 19 1.6 4.2
7 11 -19 0.1 5
11 -19 7 3.1 5.1
-11 -19 -7 -0.2 5
19 -7 11 3.2 3.6
11 19 -7 -0.3 4.5
-19 -7 -11 6.5 4.5
-19 -11 7 -1.7 4.5
11 -7 -19 1.4 5
-7 -19 11 3.1 4.8
19 7 -11 1.2 4.7
-7 -11 -19 0.5 4.5
19 11 7 -1.9 4.8
-11 -7 19 -1.1 5.2
19 -7 11 2.1 3.5
19 11 -7 0.1 5
7 -19 11 2.2 5.1
-19 -11 -7 0.7 5
7 19 -11 0.5 4.8
-19 -7 11 5.8 5.3
19 -11 7 2.8 5.3
-7 -19 -11 4.1 5.3
11 7 -19 0.5 4.7
-11 -19 7 2.9 4.2
-7 -11 19 -0.5 5.2
7 -11 -19 3.4 5.4
19 -7 -11 5.3 5
19 -9 11 22 4.8
11 19 -9 24.2 5.6
-11 -19 -9 30.5 6.1
-19 -11 9 37.5 6
-11 -9 19 26.8 6.5
19 9 -11 24.5 5.8
-9 -11 -19 24.9 4.9
11 -19 9 27.6 6.2
19 -11 -9 20.7 6.2
-9 -19 11 30.6 5.7
9 11 -19 24.9 5.9
11 -9 -19 27.4 6.4
-19 -9 -11 20.8 5.7
9 -11 19 26.7 4
19 -9 11 26.1 5.3
9 -11 -19 30.7 6.6
11 9 -19 27.6 5.9
9 19 -11 32.4 5.6
-9 -11 19 33.2 6.6
19 -11 9 24.5 6
-19 -9 11 35.6 5.8
19 -9 -11 32.9 6.1
-11 -19 9 27.5 5.9
9 -19 11 34.6 6.6
-19 -11 -9 28.3 6.4
19 11 -9 24.4 5.7
-9 -19 -11 41.1 6.5
11 -19 11 119.39 9.5
19 -11 -11 100.19 9
-11 -19 -11 110.29 9.4
-11 -19 11 93.99 8.6
11 19 -11 89.59 8.4
11 -11 -19 98.69 9.2
11 11 -19 103.39 8.9
-19 -11 -11 80.39 8.6
-19 -11 11 104.39 9
19 -11 11 87.39 8.2
-11 -11 -19 78.59 6.8
19 11 -11 95.69 8.3
19 -11 11 100.69 8.2
-11 -11 19 96.19 9.2
1 -13 19 40 6.2
-19 -13 1 38.5 6.3
-1 -13 -19 41.2 6.7
-13 -19 -1 42.9 6.3
19 1 -13 44.2 6.4
-1 -19 13 44 6.4
19 13 1 47.8 6.6
13 -1 -19 47.2 6.3
1 13 -19 40.4 6.1
19 -13 -1 43.3 7
13 19 -1 44.1 6.5
13 1 -19 45.3 6.3
-1 -19 -13 49.4 6.4
1 -19 13 43.9 6.4
19 -13 1 34.9 7
-1 -13 19 48.3 6.8
19 -1 -13 41.3 6.1
-13 -19 1 40.4 6.1
-19 -13 -1 36.6 6.3
19 13 -1 44.1 6.5
1 -13 -19 35.5 6.7
3 13 -19 1002.9 47.2
-19 -13 3 1003.7 47.4
-3 -13 -19 1047.7 47.3
19 13 3 1022.4 47.5
-13 -19 -3 1010.2 47.3
3 -13 19 962.5 47.1
-3 -19 13 978.8 47.2
13 19 -3 1000 47.2
13 -3 -19 990.9 47.4
19 3 -13 991.4 47.1
19 -13 -3 994 47.6
-13 -3 19 937.21 47.5
19 -3 -13 961.2 47.1
-19 -3 13 948.91 47.3
-19 -13 -3 987.9 47.3
3 -13 -19 954.9 47.6
-3 -13 19 1030.5 47.5
19 13 -3 995.2 47.3
-3 -19 -13 968.6 47.3
19 -13 3 1010.9 47.7
3 -19 13 1023 47.4
-13 -19 3 1030.6 47.2
13 3 -19 928.21 47.1
-13 -5 19 696.73 34.7
5 -13 19 657.73 34.1
5 13 -19 719.23 34.6
13 -5 -19 691.83 34.5
13 -19 5 693.63 34.5
19 13 5 727.13 34.6
-19 -13 5 708.53 34.5
-5 -13 -19 706.03 34.3
19 5 -13 678.93 34.2
-5 -19 13 729.13 34.6
-13 -19 -5 699.23 34.5
19 -13 -5 717.63 35
13 19 -5 719.43 34.3
19 -5 -13 664.13 34.3
-13 -19 5 678.33 34.2
5 -19 13 743.73 34.5
13 5 -19 702.43 34.4
5 -13 -19 705.63 34.9
-19 -13 -5 682.73 34.6
5 19 -13 685.93 34.4
-5 -13 19 727.93 34.9
-19 -5 13 663.83 34.4
19 13 -5 711.13 34.4
-5 -19 -13 699.23 34.5
19 -13 5 739.23 35
19 7 -13 19.3 5.4
-13 -7 19 13.3 6.3
-7 -13 -19 17.9 5.8
13 -19 7 13.4 5.9
13 -7 -19 13.3 5.8
-19 -13 7 15.6 5.5
-13 -19 -7 19.8 5.9
13 19 -7 17.2 5.1
7 -13 19 12.4 5.5
-7 -19 13 16 5.6
19 -13 -7 23.3 6.2
7 13 -19 13.7 5.8
7 19 -13 12.9 5.4
-7 -19 -13 12.2 5.9
19 -7 -13 18 5.9
-19 -13 -7 15.9 6.3
7 -19 13 18.7 6.1
-13 -19 7 19.9 5.4
7 -13 -19 14.7 6.2
-19 -7 13 17.5 5.8
19 -13 7 19 6.8
19 13 -7 8.2 5.4
13 7 -19 19.3 5.5
-7 -13 19 16.9 6.2
19 -9 13 1.7 2.6
-19 -9 -13 2.7 5
9 -13 19 1 5.2
19 9 -13 1.2 5.2
-13 -9 19 1.8 6.3
13 -19 9 1.4 6.4
-13 -19 -9 4.6 6.1
19 -13 -9 3.8 6
-19 -13 9 0.1 5.2
19 -9 13 2.2 2.7
13 19 -9 5.7 5
9 13 -19 -2.1 5.6
-9 -19 13 8 5.6
-9 -13 -19 5.2 5.6
13 -9 -19 2.7 5.8
-9 -19 -13 2.9 5.9
9 -19 13 5.4 6.1
-19 -13 -9 4.2 6.2
-19 -9 13 2.8 5.8
9 19 -13 3.3 5.4
-13 -19 9 1.6 5.2
19 -13 9 3.5 6.6
-9 -13 19 0 6.1
9 -13 -19 0.6 6
19 13 -9 -1.3 5.2
19 -9 -13 2.1 5.4
13 9 -19 5.9 5.6
19 -13 9 2.9 5.9
19 -13 -11 370.06 21.8
13 19 -11 424.06 21.5
-11 -13 -19 419.86 21.4
11 -13 19 410.06 20.2
11 13 -19 392.86 21.6
-11 -19 13 380.76 21.5
-19 -13 11 385.76 21.7
-13 -11 19 349.17 21.7
-19 -11 -13 405.56 21.8
13 -19 11 434.26 22.3
19 11 -13 396.36 21.4
19 -11 13 414.76 20.5
11 -19 -13 369.76 21.9
19 -11 13 415.16 20.8
-13 -19 -11 446.86 22.3
13 -11 -19 395.96 22.1
11 19 -13 420.36 21.6
-19 -13 -11 392.26 22.2
19 -13 11 395.66 21.9
11 -19 13 411.46 22.2
19 -13 11 375.36 22.1
13 -19 -11 381.86 21.8
-11 -13 19 408.16 22.4
-13 -19 11 384.36 21.5
-11 -19 -13 385.76 22.1
19 -11 -13 389.56 21.9
-19 -11 13 403.56 21.6
13 11 -19 376.06 21.4
19 13 -11 420.66 21.4
11 -13 -19 413.76 22.3
13 -19 -13 553.64 29
-19 -13 -13 516.35 29.2
-13 -19 13 571.44 28.7
-13 -13 -19 592.64 28.1
-13 -13 -19 549.85 28.3
19 -13 13 551.14 28.8
-13 -19 -13 576.94 29.2
13 -19 13 559.94 29.2
-19 -13 13 545.35 28.6
13 19 -13 554.94 28.4
19 -13 -13 568.04 28.8
19 13 -13 545.45 28.4
-13 -13 19 543.45 28.9
13 -13 -19 562.64 29.1
19 -13 13 538.75 28.4
13 13 -19 566.44 28.6
19 15 1 115.89 9.6
-19 -15 1 111.99 9.6
-15 -19 -1 110.39 9.3
15 19 -1 113.19 9.4
-1 -19 15 115.49 9.6
19 1 -15 108.69 8.9
1 15 -19 126.39 9.6
-1 -15 -19 104.69 9.8
1 -15 19 104.89 9.4
19 -15 -1 117.19 10.3
15 -1 -19 108.19 9.4
-19 -15 -1 104.39 9.4
-15 -19 1 113.19 9.2
19 15 -1 96.69 9.3
-1 -19 -15 120.99 9.7
19 -1 -15 107.19 9.2
1 -19 15 123.89 9.9
1 -15 -19 119.19 10.5
-1 -15 19 117.49 9.8
19 -15 1 105.09 10.1
15 1 -19 98.29 9.1
-3 -15 -19 133.39 10
15 19 -3 94.19 8.9
-19 -15 3 94.79 9
-15 -3 19 104.09 9.5
3 -15 19 109.99 9.2
19 -15 -3 109.19 9.8
-15 -19 -3 104.79 9.1
19 15 3 112.99 9.5
3 15 -19 110.99 9.5
-3 -19 15 100.29 9.1
19 3 -15 96.29 8.7
15 -3 -19 107.39 9.1
15 3 -19 92.09 8.8
3 -19 15 118.29 9.7
-15 -19 3 105.49 8.9
-3 -15 19 108.49 9.6
19 -15 3 117.39 10.5
19 15 -3 108.39 9.3
-3 -19 -15 101.89 9.2
3 -15 -19 98.59 9.8
-19 -3 15 86.19 9.2
-19 -15 -3 112.79 9.7
19 -3 -15 88.49 8.8
-5 -15 -19 42.1 7.2
15 19 -5 60.69 7
19 15 5 51.79 7.6
5 15 -19 48.2 7.1
19 5 -15 55.39 6.9
15 -5 -19 51.99 7.3
5 -15 19 53.99 7.3
-19 -15 5 62.99 7.3
-5 -19 15 53.49 7.5
19 -15 -5 51.99 8
-15 -19 -5 61.29 7.7
15 -19 5 61.89 7.8
5 19 -15 46.8 7.1
19 15 -5 60.79 7.3
-15 -19 5 49.6 7.1
-19 -5 15 45.2 6.9
19 -15 5 53.49 8.3
-5 -15 19 52.19 7.8
5 -15 -19 52.49 8.1
-19 -15 -5 34.1 7.3
15 5 -19 61.59 7.2
-5 -19 -15 59.09 7.9
19 -5 -15 46.8 6.7
5 -19 15 65.39 8
19 -15 -7 67.79 8.4
19 7 -15 79.79 8
15 -7 -19 74.99 8.5
7 -15 19 68.69 8.1
15 19 -7 82.19 7.9
-15 -19 -7 78.99 8.5
15 -19 7 76.49 8.7
-19 -15 7 80.19 8.2
-7 -15 -19 64.79 8.3
-15 -7 19 71.39 8.5
-7 -19 15 68.79 8.2
7 15 -19 75.49 8.3
-15 -19 7 64.49 7.8
19 -15 7 66.29 9.3
7 -15 -19 78.69 8.9
-19 -15 -7 85.79 9.1
7 -19 15 78.19 8.4
7 19 -15 87.19 8.4
15 7 -19 70.09 7.9
-7 -15 19 74.39 8.6
-19 -7 15 72.89 8.4
-7 -19 -15 80.29 8.9
19 -7 -15 78.79 8.3
15 -19 -7 67.09 8.6
19 15 -7 63.09 7.9
19 9 -15 183.68 12.5
9 15 -19 208.18 13.1
-9 -19 15 184.28 12.9
-19 -15 9 194.58 12.7
-15 -9 19 191.78 13.3
-15 -19 -9 165.18 12.7
15 -19 9 199.68 13.3
-9 -15 -19 204.08 13.2
15 -9 -19 218.98 13.5
15 19 -9 206.28 13
19 -15 -9 165.38 12.8
9 -19 -15 189.68 13.4
-9 -15 19 204.38 13.5
9 -15 -19 160.38 13
-15 -19 9 186.58 12.6
15 -19 -9 157.78 12.8
19 -15 9 151.18 12.4
-19 -15 -9 154.98 12.8
19 15 -9 191.38 12.5
-9 -19 -15 176.58 12.9
9 19 -15 191.08 12.7
-19 -9 15 169.28 12.8
9 -19 15 185.78 12.9
19 -15 9 188.18 13.6
15 9 -19 180.28 12.6
19 -9 -15 198.38 13
15 -11 -19 54.39 8.5
-19 -11 -15 45.6 6.9
11 -19 -15 45.5 8.5
-11 -15 -19 41.5 8.5
19 11 -15 50.99 7.5
11 -15 19 35.4 7.9
11 15 -19 45.5 7.8
-19 -15 11 39.8 7.7
15 -19 11 51.99 8.5
-15 -19 -11 45.2 8.5
-11 -19 15 63.09 8.3
19 -15 -11 40.7 7.9
-15 -11 19 44.8 8.2
15 19 -11 58.99 7.4
11 -15 -19 49.99 8.6
19 -15 11 41.5 9.7
19 -15 11 50.69 9.1
19 -11 -15 54.09 8
15 11 -19 51.59 7.7
19 15 -11 47.4 7.5
15 -19 -11 43.6 8
11 19 -15 56.69 7.7
-19 -11 15 44.6 7.7
-15 -19 11 39.1 7.7
-19 -15 -11 44.1 9.1
-11 -15 19 49.99 8.6
-11 -19 -15 46.6 8.4
11 -19 15 60.79 8.6
13 -15 19 119.39 9.9
-13 -19 15 116.69 10.9
-19 -13 -15 120.29 11.9
19 -15 -13 141.79 11.2
13 -15 19 73.59 10.1
13 15 -19 121.89 10.9
15 -19 13 150.48 12.6
15 19 -13 143.59 10.9
15 -13 -19 132.39 11.6
19 13 -15 118.49 10.5
13 -19 -15 104.19 10.9
-15 -19 -13 145.69 12.6
-15 -13 19 116.59 11.3
-19 -15 13 122.09 11.1
13 -15 -19 114.09 11.2
-13 -19 -15 123.29 11.7
-15 -19 13 112.09 10.7
19 -15 13 103.09 11.5
-19 -13 15 112.79 11.1
19 15 -13 127.79 10.6
13 19 -15 121.39 10.6
19 -13 -15 124.59 11.2
13 -19 15 139.79 12.1
-13 -15 19 105.09 11.4
15 13 -19 134.89 10.9
19 -15 13 124.99 12.6
15 -19 -13 114.29 11
-15 -19 -15 37.8 11.3
-19 -15 -15 50.89 12.6
15 -19 15 27.7 10.5
15 -15 -19 36.4 10
15 15 -19 27.8 8.6
-17 -19 -1 557.84 29.8
19 1 -17 566.84 29.4
-1 -19 17 592.04 30
1 -17 19 586.14 30
19 17 1 591.34 30
17 19 -1 600.64 29.7
-1 -17 -19 599.94 30.1
-19 -17 1 576.14 29.8
19 -17 -1 570.64 30.4
17 -1 -19 570.64 29.6
17 1 -19 570.54 29.5
17 -19 -1 562.34 30.3
-17 -19 1 585.14 29.6
19 -1 -17 542.45 29.4
19 17 -1 576.04 29.8
-19 -17 -1 588.74 30
19 -17 1 584.24 30.7
-1 -17 19 575.14 30
1 -19 17 646.24 30
-1 -19 -17 609.84 30.1
1 -17 -19 620.74 30.9
3 -17 19 45.8 7.9
17 -3 -19 43.9 7.4
-3 -19 17 48.9 7.8
-17 -19 -3 45.2 7.7
-19 -17 3 39.2 7.4
3 17 -19 40.8 7.4
19 17 3 50.59 8.1
17 19 -3 41.6 7.3
19 3 -17 45.3 6.9
19 -17 -3 39.7 8.2
-3 -17 -19 39.8 7.6
19 -17 3 48.2 9.1
17 3 -19 44.1 6.9
17 -19 -3 38.2 8.1
19 17 -3 41.5 7.4
3 -19 17 48.8 7.9
-3 -19 -17 37.1 7.7
-19 -17 -3 41.2 7.5
-3 -17 19 49.9 8.1
-19 -3 17 43.3 7.9
-17 -19 3 30.1 7
19 -3 -17 40.2 7
3 -17 -19 37.7 8.5
-17 -19 -5 -0.7 6.8
5 17 -19 -0.4 6.5
5 -17 19 3.3 7
17 -5 -19 -1.3 6.1
19 5 -17 -4.4 5.8
19 -17 -5 2.7 7.1
-5 -19 17 1.8 6.5
-5 -17 -19 -1.6 7.1
-19 -17 5 2 6.1
17 -19 5 -0.6 6.7
17 19 -5 0 6.1
-17 -5 19 -0.5 6.7
19 -5 -17 3.7 5.7
17 5 -19 2.1 5.9
-5 -19 -17 1.6 7.3
-19 -17 -5 -0.9 6.6
-5 -17 19 4.5 7.1
5 19 -17 1.1 6.4
5 -19 17 3.8 6.9
19 -17 5 -4.2 8.1
-19 -5 17 -6 6.6
5 -17 -19 1.6 7.4
19 17 -5 -3.6 5.8
17 -19 -5 1 7
-17 -19 5 0.7 6.2
17 -7 -19 288.07 17.9
17 -19 7 341.17 18.9
17 19 -7 323.27 17.7
-19 -17 7 282.47 17.7
19 7 -17 287.67 17.5
7 -17 19 299.87 18.9
7 17 -19 323.47 18.3
-17 -19 -7 315.87 19
7 -19 -17 297.17 18.8
-7 -17 -19 291.87 19
19 -17 -7 270.07 18.2
-17 -7 19 279.37 18.1
-7 -19 17 280.77 18
7 -17 -19 312.27 19.4
-19 -17 -7 275.37 18.5
-17 -19 7 296.57 17.8
19 -7 -17 279.37 17.7
19 -17 7 304.37 18.6
7 -19 17 341.97 19.1
19 17 -7 292.47 17.8
-7 -19 -17 308.47 19.1
-19 -7 17 279.87 18
-7 -17 19 323.87 18.6
7 19 -17 323.87 18.4
19 -17 7 314.57 19.2
17 7 -19 292.97 17.6
17 -19 -7 276.37 18.3
17 -9 -19 496.55 26.3
9 -17 19 478.95 27
9 -19 -17 477.45 26.6
19 -17 -9 459.85 26.3
19 9 -17 479.25 25.6
-9 -19 17 482.25 26.2
9 17 -19 529.15 26.5
-17 -9 19 478.55 26.3
17 19 -9 499.85 25.8
-9 -17 -19 500.05 27.1
-17 -19 -9 541.85 27.3
-19 -17 9 475.35 25.9
9 19 -17 474.75 25.9
17 -19 -9 471.15 26.4
-17 -19 9 500.45 25.9
19 -9 -17 500.75 26.1
-9 -17 19 502.45 26.4
9 -17 -19 512.25 26.7
17 9 -19 499.95 25.9
9 -19 17 471.05 26.9
-9 -19 -17 509.35 26.9
-19 -9 17 452.05 26.2
19 -17 9 516.15 28.2
19 17 -9 489.75 25.8
19 -17 9 477.55 26.9
19 11 -17 13.9 7.3
11 -17 19 14.4 9.6
11 17 -19 9 7.6
11 -19 -17 9.6 8.1
17 -19 11 17.1 9
17 19 -11 14.3 7
-11 -19 17 8.8 7.7
-11 -17 -19 20 9.7
19 -17 -11 11 8.2
-17 -11 19 6.6 8
-17 -19 -11 13 9.3
17 -11 -19 12.2 8
-11 -17 19 16.7 8.3
19 17 -11 11.6 7
19 -17 11 10.7 10.7
17 11 -19 11 7.2
-19 -17 -11 13.8 9.4
19 -17 11 11.2 9.6
-11 -19 -17 11 9.1
19 -11 -17 10.1 7.6
17 -19 -11 13 8
11 -19 17 10.1 9.3
11 19 -17 10.7 7.4
11 -17 -19 9.4 8.4
-17 -19 -13 0.2 10.4
-13 -17 -19 5.5 11.4
13 17 -19 0.7 8.1
17 -19 13 0.3 11
17 -19 13 5.4 12.8
-19 -17 -13 1.3 11.3
-13 -19 -17 7 10.6
13 -19 17 -1.6 11
-19 -19 -1 77.69 9.5
-19 -19 1 73.29 9
-1 -19 -19 72.19 9.8
-1 -19 19 70.79 9.9
1 -19 19 75.89 9.7
19 -19 -1 79.29 10.4
19 -19 1 74.39 10.4
19 -1 -19 56.99 8.6
19 1 -19 70.39 8.4
19 19 -1 73.59 9.2
19 19 1 68.79 9.3
-19 -19 -3 199.88 14.1
-19 -19 3 173.08 13.4
-3 -19 -19 189.08 14
-3 -19 19 210.68 14.5
3 -19 -19 185.58 14.7
3 -19 19 197.78 14.3
19 -19 -3 173.08 14.2
19 -19 3 213.28 15.3
19 -3 -19 178.98 13.2
19 3 -19 193.48 13.2
19 19 -3 198.78 13.7
-19 -19 -5 174.98 13.2
-19 -19 5 159.48 12.2
-19 -5 19 148.69 12.8
-5 -19 -19 141.39 12.8
-5 -19 19 164.88 12.9
5 -19 -19 156.28 13.4
5 -19 19 139.89 12.7
5 19 -19 159.48 12.5
19 -19 -5 164.08 13
19 -19 5 194.08 14.7
19 -5 -19 143.39 12
19 5 -19 139.89 11.5
19 19 -5 143.09 12.1
-19 -19 -7 1.4 8.8
-19 -19 7 1.6 7.4
-19 -7 19 6.4 8.1
-7 -19 -19 9.5 9.4
-7 -19 19 8 8.4
7 -19 -19 9 9.1
7 -19 19 13.3 9.1
7 19 -19 8.6 8
19 -19 -7 3.9 8.3
19 -19 7 3.4 8.6
19 -19 7 4.6 10.8
19 -7 -19 6.1 7.5
19 7 -19 -0.3 7
19 19 -7 5.4 6.9
-19 -19 -9 10.3 9.6
-9 -19 -19 11.2 10
-9 -19 19 19.3 9.2
9 -19 -19 14.1 9.3
9 -19 19 12.6 10.6
9 19 -19 14.8 8.4
19 -19 9 15.8 10.6
19 -19 9 17 12.1
19 9 -19 17.6 8
19 -19 11 140.29 14.5
19 -19 11 103.99 16
0 -20 0 1142.39 52.49
0 0 -20 1148.29 52.09
20 0 0 1060.29 52.59
-2 -20 0 4.4 3.6
0 -2 -20 4.1 3.4
0 2 -20 3.8 3.4
2 -20 0 4.1 3.8
20 0 -2 2.9 4
20 0 2 3.6 4.3
20 2 0 3.6 4.1
20 -2 0 3.1 4.1
-20 -2 0 1.1 4.4
-2 0 -20 5.5 3.1
0 -20 -2 1.6 3.6
0 -20 2 4 3.9
2 0 -20 0.4 3.5
-2 -2 -20 313.17 15.2
-2 -20 2 320.67 16
20 2 -2 286.17 16.1
20 2 2 259.57 15.9
-2 -20 -2 301.87 15.9
2 -20 -2 294.37 15.8
2 -20 2 314.27 16
2 -2 -20 284.27 15.7
2 2 -20 291.37 15.8
20 -2 -2 300.97 16.2
20 -2 2 278.47 16
-20 -2 -2 268.57 16.3
-20 -2 2 314.87 16.4
-2 2 -20 312.87 15.1
20 -4 0 190.38 12.8
20 4 0 201.48 12.7
20 0 -4 232.48 12.7
4 0 -20 187.18 12.1
0 -20 -4 219.18 12.3
0 -20 4 230.18 12.5
0 4 -20 214.58 12
4 -20 0 214.88 12.3
-4 -20 0 203.98 12.2
0 -4 -20 184.08 11.8
-20 -4 0 200.48 12.8
-4 0 -20 232.68 10.7
20 0 4 205.98 12.3
-20 -4 2 1023.4 47.3
-2 -20 4 1006.1 47.1
20 4 2 837.62 46.7
4 -2 -20 928.91 46.9
20 2 -4 1027.8 47.2
4 -20 2 1011 47
-2 -4 -20 1064.79 46.5
20 -2 4 977.1 46.9
2 4 -20 986.3 46.8
20 -4 -2 950 47.2
-4 -20 -2 1053.69 47.1
2 -20 -4 986.8 46.9
-4 2 -20 1093.69 45.8
4 2 -20 940.81 46.9
4 -20 -2 985.3 46.9
20 -2 -4 1046.6 47.3
-2 -4 20 987 47.1
20 -4 2 910.41 47
-4 -2 -20 1054.99 45.9
20 4 -2 989.1 47.1
-2 -20 -4 1037.1 47.1
-4 -20 2 1075.19 47.2
20 2 4 944.81 46.8
2 -20 4 1021.3 47.1
2 -4 -20 920.51 46.8
-20 -4 -2 939.31 47
-20 -2 4 1040.2 47.4
20 4 -4 2230.28 97.19
20 -4 4 1875.51 96.69
20 -4 -4 2152.18 97.19
-20 -4 -4 2032 96.99
-20 -4 4 2142.49 97.19
-4 -20 -4 2211.68 97.09
-4 -20 4 2205.78 97.09
-4 -4 -20 2194.48 96.09
-4 -4 20 2170.98 97.19
-4 4 -20 2355.86 95.99
4 -20 -4 2144.09 96.89
4 -20 4 2161.58 97.09
4 -4 -20 1734.53 96.69
4 4 -20 1865.91 96.69
20 4 4 2058.39 96.79
-6 -20 0 64.49 6.3
20 0 -6 77.49 7
20 0 6 60.99 5.9
0 6 -20 76.49 6.1
6 0 -20 63.39 6.5
20 6 0 41.9 6.1
0 -6 -20 62.39 6.1
0 -6 20 65.29 6.3
-20 -6 0 69.69 7.1
0 -20 -6 62.39 6.4
0 -20 6 71.49 6.6
6 -20 0 69.89 6.4
20 -6 0 61.39 6.8
2 -6 20 143.89 9.6
2 6 -20 154.88 10
6 -2 -20 125.39 9.7
-2 -20 6 159.58 10.3
-6 -20 -2 167.68 10.2
20 -2 6 162.08 9.9
-2 -6 -20 159.98 9.7
-20 -6 2 171.98 10.9
20 2 -6 168.58 10.5
20 -6 -2 148.29 10.3
2 -20 -6 148.09 9.9
6 -20 2 151.98 10.1
20 6 2 158.18 10.3
6 -20 -2 155.78 9.9
20 -6 2 121.89 9.9
20 2 6 164.08 10
-20 -2 6 142.39 10.4
20 -2 -6 152.08 10.3
-6 -20 2 169.18 10.2
6 2 -20 120.69 9.6
-2 -6 20 154.68 10.3
2 -6 -20 148.79 10
2 -20 6 160.38 10.2
-2 -20 -6 143.09 10.1
20 6 -2 146.89 10.2
-20 -6 -2 155.78 10.6
6 -4 -20 849.22 44.8
-20 -4 -6 928.11 44.8
20 4 -6 989 45.1
20 -6 -4 983.9 45.2
-6 -4 20 853.61 45.1
20 6 4 949.6 44.9
-4 -20 6 970.2 45
-20 -6 4 977.1 45.3
6 -20 4 1002.2 45.1
4 -20 -6 970.1 44.9
-6 -20 -4 1008 45.1
-4 -6 -20 978.9 44.2
20 -4 6 952.8 44.6
4 6 -20 824.72 44.7
4 -6 -20 887.01 45
-4 -6 20 981.2 45.2
-4 -20 -6 1005.2 45
20 -4 -6 999.2 45.2
4 -20 6 959.3 45
-6 -20 4 955.6 44.9
-20 -6 -4 927.51 45.1
6 4 -20 842.42 44.7
-20 -4 6 978.9 45.2
20 -6 4 875.31 44.8
20 6 -4 992 45.2
20 4 6 970.2 44.7
20 6 -6 231.08 13.2
20 6 6 218.48 13
20 -6 6 219.78 13.1
-20 -6 6 232.78 13.5
20 -6 -6 219.08 13.4
6 -20 6 224.38 13.2
-20 -6 -6 205.78 13.3
6 6 -20 198.58 13.2
6 -6 -20 186.98 13
-6 -6 20 222.98 13.7
-6 -6 -20 230.38 11.4
-6 -6 -20 216.58 11.4
-6 -20 6 234.38 13
-6 -20 -6 223.38 13.1
0 8 -20 212.78 12.8
20 0 8 233.28 12.5
20 8 0 201.98 13.4
20 -8 0 218.68 13.9
-20 -8 0 230.38 13.5
0 -20 -8 266.27 13.3
0 -20 8 241.18 13.4
20 0 -8 227.48 13.4
-8 -20 0 217.78 13.1
0 -8 -20 200.18 13
0 -8 20 210.78 13.1
8 0 -20 217.78 13.4
8 -20 0 218.48 13
8 -20 2 -0.8 4
20 2 -8 -0.7 4.5
2 8 -20 3.2 4.2
20 -8 -2 0.8 5
-20 -8 2 0.7 4.8
2 -8 20 1.7 4.1
2 -20 -8 1.3 4.2
20 -2 8 5 3.7
-2 -20 8 2.1 4.4
8 -2 -20 0 4.3
-8 -20 -2 0.4 4.3
20 8 2 5.2 4.7
-20 -2 8 2.6 4.8
2 -8 -20 1.8 4.4
20 8 -2 1.1 4.6
20 -8 2 2.1 4.8
2 -20 8 -2 4.3
20 -2 -8 0.9 4.2
-20 -8 -2 1.6 4.8
8 2 -20 4.2 4.4
20 2 8 2.5 3.7
-8 -20 2 3.7 3.8
-2 -8 20 -0.3 4.5
-2 -20 -8 2.5 4.4
4 -8 20 261.47 14.6
20 4 -8 266.17 15.4
8 -20 4 275.47 15.4
20 -8 -4 275.87 15.8
20 -4 8 304.77 14.8
8 -4 -20 259.87 15.4
-8 -20 -4 274.27 15.3
-20 -8 4 282.27 15.8
4 8 -20 259.87 15.4
-4 -20 8 267.27 15.3
-8 -4 20 274.07 15.8
20 8 4 275.97 15.5
-20 -8 -4 278.87 15.9
-20 -4 8 254.97 15.6
-4 -8 20 281.37 15.9
4 -8 -20 257.27 15.4
4 -20 8 270.67 15.4
20 8 -4 271.57 15.6
20 -8 4 268.37 15.5
20 -4 -8 272.87 15.6
20 4 8 276.67 14.8
-4 -20 -8 294.57 15.5
8 4 -20 264.67 15.3
-8 -20 4 275.47 15.2
20 -6 8 14.5 4.7
-20 -8 6 19.7 5.2
-20 -6 -8 17.5 5
-6 -8 -20 20.4 4
-6 -8 -20 16.8 4
-8 -20 -6 19.5 5.1
20 8 6 18.4 5.1
6 -8 20 13.1 3.4
6 8 -20 24 5.4
8 -20 6 15.2 5.2
-6 -20 8 16.9 5
8 -6 -20 26.6 5.7
20 6 -8 19.4 5.2
20 -8 -6 17.8 5.6
-8 -6 20 17.1 5.5
-6 -20 -8 18.7 5.2
20 6 8 25.9 5
-20 -6 8 16.5 5.4
-6 -8 20 22.2 5.6
-20 -8 -6 14.1 5.3
20 -6 -8 20.4 5.6
20 -8 6 16 5.1
20 8 -6 18.5 5.3
-8 -20 6 20.9 4.8
8 6 -20 17.5 5
6 -20 8 23.8 5.4
6 -8 -20 14.1 5.6
-8 -20 8 283.17 15.6
-8 -8 -20 249.68 13.4
-8 -8 20 257.37 16
8 -20 8 273.47 15.9
8 -8 -20 274.67 16.2
8 8 -20 240.88 15.3
-20 -8 8 271.27 15.7
-8 -20 -8 282.77 15.8
-20 -8 -8 278.97 15.8
20 -8 -8 268.47 15.7
8 20 -8 279.47 15.4
20 8 8 275.77 15.4
20 -8 8 274.97 15.4
20 8 -8 292.07 15.7
20 -10 0 13.2 5.5
0 -10 20 15.9 5.2
20 0 -10 17 5.3
20 0 10 14.9 3.4
-10 -20 0 24.8 5
0 -10 -20 11.3 5.1
0 -20 10 12.2 5
20 10 0 14.4 5.3
0 -20 -10 15.2 5
10 0 -20 15.7 5.2
-20 -10 0 18 5.5
-10 -20 -2 300.97 16.3
20 -2 10 308.67 14.9
10 -2 -20 294.17 16.5
20 10 2 302.47 16.8
20 2 -10 304.37 16.5
2 -20 -10 292.67 16.3
-20 -10 2 274.27 16.6
2 -10 20 264.77 16.1
-2 -20 10 301.37 16.4
20 -10 -2 288.47 16.9
2 10 -20 289.67 16.4
10 -20 2 296.77 16.3
-20 -10 -2 292.37 16.6
-2 -10 20 304.67 16.8
20 2 10 267.27 15
2 -20 10 317.47 16.6
-20 -2 10 281.17 16.7
-10 -20 2 299.37 16.2
10 2 -20 279.47 16.3
20 10 -2 298.97 16.6
20 -2 -10 311.57 16.6
2 -10 -20 300.17 16.6
-2 -20 -10 303.07 16.4
20 -10 2 301.37 17.2
10 -20 4 782.62 38
20 -10 -4 785.92 38.5
20 -4 10 782.02 37
20 4 -10 818.92 38.2
-10 -20 -4 833.62 38.2
-4 -20 10 879.91 38.4
4 -10 20 750.42 37.6
4 10 -20 809.42 38.2
-10 -4 20 776.22 38.5
10 -4 -20 748.43 38.2
-4 -10 -20 793.02 37.8
-20 -10 4 781.52 38.4
20 10 4 800.22 38.3
20 -10 4 803.02 38.5
20 10 -4 786.92 38.2
20 -4 -10 756.32 38.2
4 -20 10 775.42 38.1
-4 -20 -10 821.22 38.3
10 4 -20 753.02 38
4 -10 -20 727.53 38.2
-20 -4 10 790.32 38.3
20 4 10 810.52 37.2
-10 -20 4 800.42 38.1
-20 -10 -4 778.62 38.3
-4 -10 20 783.72 38.3
10 20 -6 104.39 8.4
-20 -6 -10 70.19 7.3
-20 -10 6 104.09 8.7
-10 -20 -6 100.69 8.5
20 6 -10 98.99 8.3
10 -6 -20 89.39 8.6
-10 -6 20 90.89 8.8
20 -10 -6 110.49 8.9
6 -10 20 100.59 7.3
6 10 -20 114.19 8.8
20 10 6 92.99 8.3
10 -20 6 104.69 8.7
-6 -20 10 98.39 8.4
-6 -10 -20 97.69 7.6
20 -6 10 103.49 7.2
6 -10 -20 83.99 8.6
-6 -10 20 101.39 8.9
6 -20 10 104.79 8.7
-20 -6 10 96.89 8.6
20 -6 -10 87.09 8.4
-20 -10 -6 94.59 8.6
20 -10 6 86.59 8.5
20 10 -6 94.79 8.3
10 6 -20 86.69 8.2
-6 -20 -10 95.99 8.3
-10 -20 6 111.49 8.5
8 -10 20 3.3 3.1
20 -8 10 5.6 4.9
20 8 -10 6 5
10 -20 8 1.4 5.6
-20 -8 -10 4.4 5.5
10 20 -8 0.3 4.6
-20 -10 8 4.8 5.4
20 -10 -8 -0.3 5.6
8 10 -20 5.8 5.4
-8 -10 -20 4.8 4.2
-8 -20 10 2.4 5.2
-10 -8 20 8.9 6.1
20 10 8 2.7 5.4
10 -8 -20 3.9 5.6
-10 -20 -8 -1.7 5.1
-20 -8 10 4.9 5.2
20 10 -8 3.8 5.1
-10 -20 8 0 4.8
-8 -20 -10 -0.5 5.4
-8 -10 20 1.7 5.8
8 20 -10 7.1 5
20 -8 -10 3.5 5.5
-20 -10 -8 3.2 5.7
10 8 -20 -0.8 5.1
8 -20 10 3.7 5.4
20 -10 8 3.4 5.6
8 -10 -20 2.5 5.8
20 -10 10 16.7 6
10 -10 -20 17.9 6.7
-20 -10 10 25 6
-10 -20 -10 24 6.4
20 -10 10 16.9 5.8
-10 -10 -20 18.2 3.6
-10 -10 20 20.3 6.7
10 10 -20 15.5 5.8
-10 -20 10 21.6 5.8
-20 -10 -10 16.8 6.3
20 -10 -10 18.9 6.5
10 -20 10 19 6.3
10 20 -10 22.1 5.8
20 10 -10 18.2 5.9
-20 -12 0 163.78 11.3
12 0 -20 155.48 10.9
20 -12 0 168.58 11.6
0 -20 -12 149.29 10.7
20 12 0 167.88 11.3
0 -12 -20 152.38 11.3
0 -12 20 167.18 11.1
0 -20 12 146.09 10.8
-12 -20 0 137.49 10.5
20 0 -12 157.78 11
2 -12 20 976.4 48.2
20 12 2 969.3 48.5
-12 -20 -2 998.3 48.3
20 -12 -2 1184.98 49.1
20 2 -12 974.3 48.2
-2 -20 12 1044.5 48.5
-20 -12 2 1014.1 48.6
12 -2 -20 959.7 48.4
2 12 -20 1075.59 48.4
2 -20 -12 989.6 48.3
12 -20 2 1013.2 48.3
-12 -20 2 1030.1 48.4
20 -12 2 1022.9 48.8
-20 -2 12 955.6 48.5
-2 -12 20 1036.7 48.6
12 2 -20 1026.5 48.4
-2 -20 -12 1004.3 48.3
20 12 -2 1017.1 48.5
-20 -12 -2 1033.1 48.6
20 -2 -12 990.1 48.3
2 -20 12 996.1 48.3
2 -12 -20 1035.7 48.7
20 -12 -4 2110.99 97.59
12 20 -4 2115.99 97.29
4 -12 20 2126.59 97.09
20 4 -12 2050.49 97.19
12 -20 4 2075.39 97.29
20 12 4 2053.79 97.29
4 12 -20 2146.49 97.39
12 -4 -20 2074.69 97.49
-4 -12 -20 2160.78 97.19
-20 -12 4 2009.2 97.29
-12 -4 20 2273.17 97.79
-12 -20 -4 2136.39 97.39
-4 -20 12 2159.18 97.39
4 -20 12 2129.49 97.39
-20 -4 12 2030.7 97.29
20 -4 -12 2026.5 97.19
-4 -20 -12 2132.69 97.39
20 -12 4 2127.29 97.49
-20 -12 -4 2106.19 97.49
-4 -12 20 2059.79 97.39
12 4 -20 1995.5 97.19
20 12 -4 2078.79 97.29
-12 -20 4 2100.79 97.29
4 -12 -20 2184.68 97.79
6 -12 20 538.35 28.7
12 20 -6 583.24 29.1
-6 -20 12 583.34 29.2
20 12 6 571.74 29.3
6 12 -20 598.94 29.3
12 -20 6 592.84 29.3
-12 -20 -6 594.14 29.5
-12 -6 20 566.34 29.6
-20 -12 6 600.94 29.4
-6 -12 -20 586.24 29.1
20 -12 -6 586.14 29.7
20 6 -12 561.14 29
12 -6 -20 584.14 29.5
-20 -12 -6 601.34 29.5
20 -12 6 597.14 29.8
12 6 -20 588.44 29.3
-12 -20 6 567.94 29
-6 -20 -12 595.94 29.4
-6 -12 20 592.04 29.8
20 12 -6 569.54 29.1
-20 -6 12 552.34 29.3
6 -20 12 620.44 29.4
20 -6 -12 557.44 29.3
6 -12 -20 604.04 29.9
-8 -20 12 117.89 9.7
8 -12 20 104.69 8.3
-12 -8 20 106.49 10
-20 -8 -12 102.09 8.5
12 -20 8 138.99 10.3
20 -8 12 110.59 7.3
12 -8 -20 118.89 10.1
-20 -12 8 123.19 10
20 8 -12 123.19 9.6
12 20 -8 130.29 9.6
20 -12 -8 129.19 10.1
8 12 -20 87.69 9.2
20 -8 12 117.59 7.5
-8 -12 -20 90.29 8.6
-12 -20 -8 129.29 10.2
12 8 -20 110.49 9.6
20 -12 8 119.49 10.2
20 -8 -12 117.79 9.6
-12 -20 8 113.69 9.5
8 -12 -20 123.79 10.3
-8 -20 -12 145.99 10.5
8 20 -12 128.19 9.6
-20 -12 -8 132.09 10.5
-20 -8 12 128.29 9.8
-8 -12 20 121.79 10.3
8 -20 12 117.89 9.8
20 12 -8 135.39 9.6
-20 -10 -12 344.27 22.2
20 -10 12 404.36 21.5
12 -20 10 434.46 22.8
12 -10 -20 412.86 22.8
-20 -12 10 400.16 22.1
-12 -10 20 427.46 22.7
12 20 -10 424.96 21.9
10 12 -20 411.26 22.4
-10 -20 12 396.26 22
20 10 -12 423.66 22.1
-10 -12 -20 415.06 21.5
20 -10 12 406.66 21.2
20 -12 -10 421.76 22.4
-12 -20 -10 432.26 22.5
10 -20 12 440.46 22.7
10 20 -12 421.46 21.9
20 -10 -12 404.56 22.4
12 10 -20 399.96 22.1
-20 -10 12 440.66 22.2
20 -12 10 416.26 22.2
-12 -20 10 405.86 21.9
-10 -20 -12 423.16 22.4
-10 -12 20 416.26 22.9
10 -12 -20 398.16 22.6
20 -12 10 395.26 22.7
20 12 -10 416.76 22.1
-20 -12 -10 391.26 22.7
-12 -20 12 1018.1 49.7
-12 -20 -12 1090.79 50.29
20 -12 12 1044.6 49.5
12 -20 -12 1031.5 50.09
12 -12 -20 1019.1 50.09
-20 -12 12 1021.5 49.9
20 -12 -12 1058.59 50.09
20 12 -12 997.4 49.5
-12 -12 -20 1030.5 48.1
12 -20 12 1050.79 50.09
12 20 -12 1020.2 49.5
-12 -12 -20 1063.69 48.1
12 12 -20 1024.9 49.9
-12 -12 20 1043.7 50.09
14 0 -20 14.7 5.9
0 -20 14 12.2 6.1
0 -20 -14 12.8 5.9
20 -14 0 11.4 6.7
-14 -20 0 13.4 5.5
0 -14 20 12.7 6.3
20 14 0 12.3 6.2
0 -14 -20 11.4 6.6
20 0 -14 13.3 5.6
-20 -14 0 10.3 6.1
14 -2 -20 419.76 22.5
2 14 -20 416.86 22.5
-2 -20 14 408.86 22.4
20 -14 -2 425.36 23.3
-20 -14 2 419.56 22.7
20 2 -14 392.76 22.1
20 14 2 453.15 22.9
14 20 -2 443.76 22.4
-14 -20 -2 416.06 22.4
2 -14 20 404.76 22.6
20 -14 2 431.66 23.4
-2 -14 20 427.96 22.8
2 -14 -20 428.46 23.5
2 -20 14 433.66 22.9
-20 -14 -2 405.66 22.6
20 -2 -14 377.96 22
-20 -2 14 418.56 22.6
20 14 -2 457.15 22.8
-2 -20 -14 415.06 22.7
14 2 -20 417.46 22.4
-14 -20 2 465.95 22.5
-4 -14 -20 943.91 43.9
-20 -14 4 906.91 43.9
14 -20 4 963.4 44
20 -14 -4 937.01 44.3
4 -14 20 887.81 43.8
-14 -4 20 893.21 44.2
20 4 -14 914.21 43.7
20 14 4 961.8 44
14 -4 -20 943.01 44
14 20 -4 953.6 43.8
4 14 -20 973.1 44.1
-14 -20 -4 913.91 43.9
-4 -20 14 712.33 43.4
-4 -20 -14 913.01 44
20 14 -4 834.92 43.7
4 -14 -20 955.6 44.5
14 4 -20 883.41 43.7
-20 -14 -4 914.31 44.2
-14 -20 4 871.11 43.6
4 -20 14 905.71 43.9
-20 -4 14 885.21 43.9
20 -4 -14 891.71 43.7
20 -14 4 929.91 44.5
-4 -14 20 939.61 44.1
-6 -14 -20 114.59 10.2
-20 -14 6 124.29 10.2
6 -14 20 98.19 9.7
6 14 -20 120.19 10.2
-14 -20 -6 131.09 10.6
-6 -20 14 141.29 10.5
-14 -6 20 119.79 10.7
20 6 -14 121.89 9.7
14 -6 -20 139.09 10.6
14 20 -6 129.99 9.9
20 -14 -6 106.99 10.4
20 14 6 126.79 10.6
14 6 -20 126.19 10
-14 -20 6 115.39 9.8
-20 -14 -6 121.19 10.4
-6 -14 20 146.49 11.1
6 20 -14 140.79 10.3
6 -14 -20 116.99 10.5
6 -20 14 125.19 10.2
20 -14 6 117.69 11
-6 -20 -14 129.29 10.5
-20 -6 14 120.39 10.3
20 -6 -14 118.89 9.8
20 14 -6 162.08 10.6
8 -14 20 0.6 6.5
-14 -8 20 1.4 6.7
-8 -14 -20 2.8 6.6
20 8 -14 4.2 5.4
8 14 -20 3.6 6.1
-14 -20 -8 2.8 6.6
20 -14 -8 -1 6.5
14 20 -8 0.7 5.8
-20 -14 8 1.3 6.1
-8 -20 14 1.5 6.2
14 -20 8 4.1 6.8
14 -8 -20 3 6.6
14 8 -20 2.8 5.9
8 -20 14 6.1 6.7
8 20 -14 3.5 5.6
-8 -20 -14 -3.6 6.6
-14 -20 8 2.2 5.5
20 14 -8 2.7 5.7
8 -14 -20 -0.9 6.7
-20 -8 14 0.8 6.2
20 -14 8 1 7.7
-20 -14 -8 6.2 7.1
20 -8 -14 2 6.3
-8 -14 20 5.4 6.9
-14 -20 -10 273.97 14.4
14 -10 -20 144.89 12.5
14 20 -10 183.28 12.2
-10 -20 14 172.18 12.4
-14 -10 20 173.18 13.1
20 10 -14 197.88 12.4
20 -14 -10 182.98 12.7
-10 -14 -20 154.38 12.2
-20 -14 10 152.88 12.3
14 -20 10 172.88 12.7
-20 -10 -14 154.18 11.1
10 14 -20 166.98 12.4
10 -14 20 173.28 11.6
10 -20 -14 149.09 12.7
-14 -20 10 180.58 12.5
-20 -14 -10 160.08 12.9
14 10 -20 148.19 12.1
10 20 -14 170.88 12.3
10 -14 -20 177.28 13.2
20 -10 -14 188.88 12.6
20 -14 10 158.18 12.4
14 -20 -10 177.38 12.7
-10 -14 20 200.28 13.6
-10 -20 -14 173.18 12.9
-20 -10 14 166.28 12.6
10 -20 14 166.48 12.8
20 14 -10 185.88 12.2
20 -14 10 175.08 13.5
-12 -14 -20 797.32 38.4
-14 -12 20 719.73 38.6
14 20 -12 771.82 38.1
-14 -20 -12 898.51 39.3
14 -12 -20 777.82 38.7
20 -12 14 820.52 36.6
12 -20 -14 743.83 38.5
-20 -14 12 765.12 38.3
20 -12 14 876.61 36.5
12 14 -20 785.32 38.5
20 -14 -12 767.82 38.4
-12 -14 -20 763.72 38.6
-12 -20 14 736.13 38.2
20 12 -14 766.52 38
14 -20 12 747.23 38.9
-12 -14 20 751.22 38.6
20 -14 12 717.83 39.2
20 -12 -14 776.42 38.4
-14 -20 12 721.73 38
-20 -12 14 756.62 38.3
12 -20 14 791.82 38.9
-20 -14 -12 707.33 39.2
12 20 -14 794.72 38.2
20 14 -12 774.32 38
20 -14 12 814.72 39
12 -14 -20 801.82 38.9
14 -20 -12 711.93 38.4
14 12 -20 735.13 38.2
20 14 -14 297.47 18.5
20 -14 -14 309.97 19.2
14 -14 -20 296.27 19.9
14 20 -14 291.97 18.4
-14 -14 -20 326.77 18.3
14 -20 14 262.07 18.9
14 14 -20 373.76 19.4
-14 -14 -20 323.97 18.4
-14 -14 20 292.77 19.4
14 -20 -14 280.87 19.2
-14 -20 -14 268.37 18.9
-20 -16 0 130.19 11.2
-16 -20 0 140.69 11.3
0 -20 16 180.38 12.1
20 0 -16 127.59 10.8
0 -16 20 164.38 12
0 -20 -16 142.79 11.3
20 -16 0 159.88 12.5
16 0 -20 141.89 11.1
20 16 0 154.08 11.6
-16 -20 -2 -2.9 6.2
2 16 -20 -0.4 6.2
-2 -16 -20 -1.7 6.6
20 -16 -2 3.5 7.1
20 16 2 1.2 6.6
16 20 -2 0.9 6.3
20 2 -16 -2.6 5.9
-20 -16 2 -0.1 6.2
2 -16 20 2.9 6.8
-2 -20 16 1.4 6.5
16 -2 -20 -1.3 6
-2 -16 20 1 6.8
20 -16 2 2.8 7.5
-20 -16 -2 2.9 6.7
20 -2 -16 -1.1 5.8
20 16 -2 -2.1 6.1
-2 -20 -16 2.1 6.7
-16 -20 2 1.2 6
16 2 -20 4.2 6.1
2 -16 -20 -3.7 7.2
2 -20 16 -2.5 6.8
20 -16 -4 142.99 11.7
-16 -4 20 129.59 11.1
-20 -16 4 123.69 10.6
20 16 4 125.99 10.9
16 20 -4 106.79 10.1
16 -20 4 147.79 11.1
-16 -20 -4 131.19 10.9
-4 -16 -20 118.49 10.8
4 -16 20 133.89 11.3
4 16 -20 160.08 11.3
20 4 -16 115.89 9.8
-4 -20 16 120.89 10.7
16 -4 -20 125.89 10.4
-20 -4 16 109.89 10.7
-20 -16 -4 137.29 11.2
4 -20 16 109.29 10.5
16 4 -20 140.29 10.6
20 -4 -16 111.99 10.2
4 -16 -20 114.09 11.3
-4 -16 20 133.89 11.2
20 16 -4 130.19 10.6
-16 -20 4 124.89 10.2
20 -16 4 126.69 11.6
-4 -20 -16 146.79 11.5
-6 -20 16 0.7 6.5
20 -16 -6 1 7.4
-16 -20 -6 2.3 6.8
16 -20 6 1.4 6.9
16 20 -6 -1 6.1
20 6 -16 0.5 6.1
16 -6 -20 2.3 6.4
-16 -6 20 0.6 6.9
6 16 -20 1.3 6.7
-20 -16 6 2.2 6.2
6 -16 20 4.3 7.4
-6 -16 -20 4.3 7.6
16 -20 -6 3.3 6.7
-20 -6 16 -1.1 6.4
20 -6 -16 2.4 6.3
-16 -20 6 -0.4 6
20 16 -6 1.3 6.1
-6 -20 -16 5.9 7.4
-6 -16 20 4.4 7.2
6 -16 -20 -1 7.4
20 -16 6 -3.3 8.6
-20 -16 -6 3 7.3
6 20 -16 3.3 6.6
16 6 -20 1.5 6.1
6 -20 16 5.9 7.2
-16 -8 20 152.38 12.7
-20 -16 8 176.18 12.4
-16 -20 -8 141.39 12.4
16 -20 8 186.98 13.1
-8 -16 -20 162.58 13
20 -16 -8 160.98 12.7
-8 -20 16 165.28 12.4
16 -8 -20 164.58 12.7
8 -20 -16 141.99 12.8
8 16 -20 159.18 12.3
16 20 -8 161.88 11.8
20 8 -16 169.38 12
16 8 -20 174.38 12.3
-8 -16 20 167.88 13
8 -16 -20 172.78 13.2
16 -20 -8 157.68 12.7
-20 -16 -8 133.79 12.5
20 -8 -16 151.78 12.2
8 -20 16 188.18 13.5
8 20 -16 155.08 12.2
20 -16 8 148.59 13.5
-16 -20 8 173.68 12.1
-20 -8 16 157.38 12.3
20 -16 8 145.19 12.4
20 16 -8 179.28 12.2
-8 -20 -16 193.98 13.6
16 -10 -20 6 7.5
-20 -16 10 6.3 6.9
-16 -10 20 2.3 7.6
10 -16 20 3.3 9.2
10 -20 -16 5.7 7.9
16 -20 10 7.9 8.5
-16 -20 -10 11.1 8.4
20 -16 -10 6.5 7.7
-10 -16 -20 4.8 9
-10 -20 16 1.6 7.6
20 10 -16 8.4 7
16 20 -10 6.3 6.9
10 16 -20 1.6 7.7
-10 -20 -16 4.8 8.4
20 -10 -16 1.6 7.3
20 16 -10 10.5 6.8
-10 -16 20 5.4 8.1
-20 -10 16 4.6 7.7
-16 -20 10 4 7.1
-20 -16 -10 9.6 9.1
16 -20 -10 9.9 7.3
10 -20 16 12.8 8.8
10 20 -16 5 7.1
20 -16 10 3 10.3
16 10 -20 9.9 7.3
10 -16 -20 3 8.1
20 -16 10 6.3 8.9
16 -12 -20 161.28 13.6
12 16 -20 177.48 13.5
-12 -16 -20 177.58 15
12 -20 -16 172.58 13.7
-16 -20 -12 151.48 14
-12 -20 -16 171.18 14.4
16 12 -20 164.98 13.1
12 20 -16 181.68 13.1
20 -16 12 161.58 15.7
-12 -16 20 194.38 14.4
12 -16 -20 161.28 13.7
12 -20 16 199.18 15.1
-16 -20 -14 13.5 12.2
-14 -20 -16 18.6 12
20 18 0 176.28 12.9
20 0 -18 158.68 12.3
0 -18 -20 204.08 14
-20 -18 0 180.78 13.2
18 0 -20 145.99 12.2
20 -18 0 174.98 14.1
18 -20 0 174.88 14
0 -18 20 172.48 13.4
0 -20 -18 193.08 13.6
-18 -20 0 150.88 12.5
0 -20 18 162.78 12.9
2 -18 20 -7.7 7.5
18 -2 -20 2.5 6.9
18 20 -2 -0.2 7.1
20 2 -18 3.6 6.6
-20 -18 2 0.6 7.1
20 18 2 2.2 7.6
-2 -18 -20 0.5 7.8
-18 -20 -2 -0.2 7.1
18 -20 2 1.9 8.9
-2 -20 18 0.1 7.9
20 -18 -2 -0.9 8.1
18 2 -20 1.1 6.5
-18 -20 2 -1 7.1
20 -2 -18 0.8 6.6
-20 -18 -2 2.2 7.8
20 -18 2 -1.1 9
2 -20 18 0.5 7.7
2 -18 -20 2.1 8.8
18 -20 -2 0.7 8.3
20 18 -2 4.1 7.3
-2 -18 20 2.3 7.8
-2 -20 -18 -1.3 7.8
20 -18 -4 216.18 14.9
18 -20 4 204.08 15.5
4 -18 20 205.68 14.5
4 18 -20 204.58 14.3
18 20 -4 198.88 13.7
-20 -18 4 205.78 14
18 -4 -20 212.38 14
18 -20 4 204.28 14.4
-4 -18 -20 195.18 14.5
20 4 -18 170.98 13.2
-18 -20 -4 184.78 14.1
-4 -20 18 197.78 14.3
20 -18 4 239.78 16.3
-4 -20 -18 229.78 15.3
-20 -18 -4 215.58 14.8
4 -18 -20 190.48 14.9
18 4 -20 158.18 13.1
18 -20 -4 162.18 14.1
-20 -4 18 201.08 14.1
20 -4 -18 175.28 13.4
20 18 -4 175.78 13.6
-18 -20 4 208.68 13.9
4 -20 18 238.98 15.1
-4 -18 20 205.58 14.6
-6 -20 18 10.5 8.1
6 -20 -18 7.5 8.9
18 -20 6 8.8 8.4
-18 -20 -6 10 8.3
18 -20 6 17.9 10.2
20 -18 -6 17.8 8.5
18 -6 -20 11.7 7.4
-6 -18 -20 7.6 9.1
-18 -6 20 9 8.5
18 20 -6 16.3 7.4
6 -18 20 8.4 9.2
6 18 -20 14.8 8.1
-20 -18 6 8.3 7.7
20 6 -18 14.6 7.2
-6 -18 20 13 8.5
-6 -20 -18 13.7 9
20 -6 -18 7.8 6.9
20 -18 6 13.8 10.5
6 -20 18 10 8.9
6 20 -18 14.9 8.1
18 -20 -6 9.7 7.9
-20 -6 18 10.1 8.3
6 -18 -20 15.9 9.1
20 18 -6 8.7 7.5
20 -18 6 20.1 9.3
-20 -18 -6 8.3 8.5
18 6 -20 9.1 7.2
-18 -20 6 13.5 7.2
-8 -18 -20 67.39 11.4
20 -18 -8 72.29 10.2
20 8 -18 70.89 9
8 18 -20 76.39 9.8
18 20 -8 61.89 9.4
18 -8 -20 56.59 9.4
18 -20 8 67.69 12.5
18 -20 8 55.39 10.3
8 -20 -18 63.59 10.5
-8 -20 18 62.79 10.2
8 -18 20 76.79 11.7
-18 -20 -8 76.49 10.8
18 8 -20 66.89 9.1
-8 -18 20 64.29 10.3
8 20 -18 88.59 10
20 -18 8 60.19 10.5
-8 -20 -18 67.99 10.7
18 -20 -8 63.59 9.8
8 -20 18 78.79 11.3
-20 -18 -8 59.69 10.6
20 18 -8 58.09 9.2
20 -8 -18 80.99 9.6
8 -18 -20 84.59 11
20 -18 8 80.19 13
10 -20 -18 1.5 9.3
-18 -20 -10 5.4 10.5
10 18 -20 6 8.6
18 -20 10 3.6 10.4
18 -20 10 3.8 12.3
-10 -18 -20 2.2 11.3
10 -18 -20 -0.4 9.2
-20 -18 -10 9.6 10.6
-10 -20 -18 0.7 10.4
20 -18 10 -4.9 12.2
10 -20 18 -1.7 10.8
10 20 -18 1.2 8.1
20 -18 10 -0.9 10.9
-18 -20 -12 189.28 16.3
-12 -20 -18 151.88 16.3
-20 -20 0 3.4 8.7
0 -20 -20 -1.1 9.2
0 -20 -20 2.2 10.9
0 -20 20 -2.7 9.1
20 -20 0 5.3 10.4
20 0 -20 2.4 7.6
20 20 0 -4.2 8.6
-20 -20 -2 335.57 21.6
-20 -20 2 299.17 20.4
-2 -20 -20 339.57 21
-2 -20 20 322.87 21.8
2 -20 -20 338.67 21.5
2 -20 20 330.97 20.9
20 -20 -2 343.67 21.2
20 -20 2 378.36 22.2
20 2 -20 312.07 20
20 20 -2 323.27 20.5
-20 -20 -4 850.01 42.8
-4 -20 20 860.51 43.3
4 -20 -20 867.21 43.5
4 -20 20 844.02 43.3
20 -20 -4 856.11 43.3
20 -20 4 879.71 44.1
20 20 -4 800.32 42.1
-20 -20 -6 234.68 18
-6 -20 -20 244.68 19.2
-6 -20 20 286.67 18.9
6 -20 -20 284.67 19.4
6 -20 20 277.67 19.4
20 -20 6 308.97 19.4
20 -20 6 318.27 20.7
-20 -20 -8 121.59 14.2
-8 -20 -20 86.19 14
8 20 -20 162.98 13.3
20 -20 8 113.09 14
20 -20 8 142.29 17
-20 -20 -10 343.57 22.9
-1 -21 -1 64.49 6.1
-1 -21 1 60.59 6.2
1 -21 -1 71.99 6.5
1 -21 1 78.79 6.9
1 -1 -21 71.99 6.2
1 1 -21 66.39 6.1
21 -1 -1 60.79 6.6
21 -1 1 56.39 6.6
21 1 -1 56.29 6.4
21 1 1 51.69 6.2
1 -21 -3 398.06 20.6
-3 -21 -1 401.96 20.7
3 -1 -21 374.76 20.6
-1 -21 3 427.96 20.8
1 3 -21 399.96 20.4
-3 1 -21 437.76 19.6
3 -21 1 417.36 20.8
21 3 1 386.46 20.8
21 -1 3 327.97 20.4
21 1 -3 414.26 20.9
-21 -3 1 391.26 21
21 -3 -1 391.76 21.1
21 -1 -3 383.46 20.9
21 -3 1 393.16 20.8
21 3 -1 403.76 20.8
-21 -3 -1 393.26 21.2
21 1 3 536.65 21.3
-3 -1 -21 412.36 19.6
3 -21 -1 389.96 20.5
-1 -21 -3 385.56 20.6
1 -3 -21 409.26 20.5
-21 -1 3 396.66 21.2
1 -21 3 401.76 20.7
-3 -21 1 399.36 20.6
3 1 -21 381.76 20.6
-3 -3 -21 1447.26 65.09
-3 3 -21 1504.75 64.99
3 -21 -3 1404.06 65.79
-3 -21 3 1562.94 65.99
-21 -3 -3 1394.16 66.09
-21 -3 3 1442.66 66.19
-3 -21 -3 1437.86 65.89
3 -3 -21 1365.16 65.69
3 3 -21 1360.56 65.69
21 -3 -3 1449.26 66.19
21 -3 3 1345.97 65.79
21 3 -3 1395.26 65.99
21 3 3 1175.48 65.49
3 -21 3 1476.15 65.99
21 -5 -1 253.17 15.3
5 -1 -21 248.68 15.1
21 -1 5 275.87 15
21 1 -5 262.77 15.3
5 -21 1 271.07 14.9
-1 -21 5 296.77 15.2
-5 -21 -1 290.37 15.1
1 5 -21 261.17 14.8
21 5 1 249.78 15
-21 -5 1 272.17 15.8
1 -21 -5 270.57 14.9
-21 -1 5 263.17 15.6
-5 -21 1 271.67 14.9
1 -21 5 283.97 15.1
21 -1 -5 268.97 15.3
5 1 -21 247.78 15
5 -21 -1 275.27 14.9
21 -5 1 277.17 15.6
21 5 -1 281.67 15.6
-21 -5 -1 271.27 15.6
21 1 5 259.27 15
1 -5 -21 275.57 15
-1 -21 -5 265.37 15
-1 -5 21 260.67 15.3
5 -21 3 1542.45 70.09
-21 -5 3 1493.55 70.19
21 3 -5 1462.15 69.99
-5 -21 -3 1543.45 69.99
5 -3 -21 1414.06 69.79
3 5 -21 1451.05 69.79
21 -3 5 1503.15 69.79
-3 -21 5 1519.35 69.89
3 -21 -5 1448.85 69.79
21 5 3 1470.15 69.89
21 -5 -3 1522.55 70.19
-3 -5 21 1521.95 70.09
5 3 -21 1353.36 69.69
-3 -21 -5 1542.35 69.99
3 -5 -21 1447.46 69.89
21 -5 3 1485.65 69.99
21 5 -3 1469.55 69.99
21 3 5 1435.16 69.69
21 -3 -5 1536.65 70.19
-21 -3 5 1555.24 70.29
3 -21 5 1528.15 69.99
-5 -21 3 1534.75 69.99
-5 -3 -21 1602.94 68.39
-3 5 -21 1538.35 69.19
-5 -3 -21 1505.05 68.39
5 -21 -3 1523.05 69.89
-21 -5 -3 1554.24 70.19
-5 -5 -21 2026 85.99
-5 -21 -5 1866.01 87.09
-5 -21 5 1864.71 86.99
-21 -5 -5 1830.62 87.09
-21 -5 5 1848.12 87.29
5 -21 5 1968.3 87.19
5 -5 -21 1745.53 86.99
5 5 -21 1857.91 86.99
21 -5 5 1805.82 86.89
-5 -5 -21 1965.7 85.99
-5 -5 21 1885.11 87.29
5 -21 -5 1865.11 86.99
21 5 5 1857.61 86.99
21 5 -5 1876.31 87.19
21 -5 -5 1925.31 87.39
1 -7 21 35.3 5.7
-7 -21 -1 45.8 6
7 -21 1 58.69 6.2
21 -7 -1 44 6.4
1 7 -21 46.1 6.3
7 -1 -21 42.1 6
21 1 -7 44.5 6.3
21 -1 7 45.5 5.5
1 -21 -7 43.2 5.5
21 7 1 49.9 6.4
-21 -7 1 45 6.4
-1 -21 7 52.39 6.3
21 -7 1 47.6 6.7
1 -7 -21 45.8 6.2
-1 -7 21 43 6
21 1 7 48.8 5.7
-7 -21 1 48.6 6
7 1 -21 41.7 6.1
-21 -1 7 46.7 6.6
1 -21 7 52.79 6.2
21 -1 -7 48 6.4
-21 -7 -1 45.3 6.5
7 -21 -1 54.99 6.1
-1 -21 -7 42.9 6
21 7 -1 45.6 6.3
3 -21 -7 260.77 14.9
-7 -3 21 288.47 16.1
21 7 3 262.97 15.6
7 -21 3 263.77 15.1
3 7 -21 277.47 15.4
21 -3 7 268.27 14.9
21 3 -7 270.07 15.3
-7 -21 -3 279.47 15.3
3 -7 21 272.77 14.8
-21 -7 3 266.17 15.6
7 -3 -21 245.58 15.5
21 -7 -3 262.37 15.8
-3 -21 7 269.57 15.1
-21 -3 7 264.47 15.6
7 3 -21 242.58 15.2
-3 -21 -7 287.87 15.4
21 -7 3 283.07 15.8
21 7 -3 273.17 15.4
7 -21 -3 272.87 14.9
-21 -7 -3 251.27 15.6
21 -3 -7 258.77 15.4
-7 -21 3 282.57 15.2
-3 -7 21 250.97 15.5
3 -7 -21 261.67 15.6
21 3 7 266.77 14.9
3 -21 7 284.97 15.3
21 7 5 431.66 21.3
21 -7 -5 403.76 21.5
-5 -7 -21 411.16 20.2
-5 -21 7 415.06 21.2
-5 -7 -21 414.26 20.2
5 7 -21 390.86 21.2
7 -21 5 442.76 21.5
7 -5 -21 377.66 21.2
-7 -5 21 408.96 21.7
21 5 -7 412.66 21.3
-21 -7 5 407.96 21.6
-21 -5 -7 381.26 21.3
21 -5 7 393.86 20.9
-7 -21 -5 400.26 21.1
5 -21 7 410.66 21.4
-21 -5 7 394.36 21.4
7 5 -21 396.36 21.3
-5 -21 -7 425.26 21.3
-21 -7 -5 408.66 21.5
-7 -21 5 411.26 21
21 7 -5 401.86 21.3
-5 -7 21 398.86 21.6
5 -7 -21 404.36 21.6
21 -5 -7 420.46 21.4
21 -7 5 375.96 21.2
21 5 7 395.66 20.9
-7 -7 -21 36 3.4
21 -7 7 33.8 6.2
21 7 -7 35.9 6.1
-7 -21 -7 35.2 6.1
-7 -7 21 39.3 6.8
-21 -7 -7 29.8 6.4
7 -21 7 34.5 6.1
7 -7 -21 38.8 6.6
7 7 -21 32.9 6.1
-7 -21 7 38.2 5.7
21 -7 -7 42.8 6.5
-21 -7 7 38.7 6.5
21 7 7 41.1 6.3
9 -21 1 3.4 4.6
9 -1 -21 0.6 4.9
21 -9 -1 -2.9 5.6
21 9 1 -1.9 5
-1 -21 9 -1.7 4.7
1 -21 -9 -2.5 4.4
-21 -9 1 -1.4 5.3
1 -9 21 0.5 4.9
-9 -21 -1 1.8 4.7
21 1 -9 -0.3 5
21 -1 9 -0.7 3.9
21 -9 1 -0.7 5.5
9 -21 -1 2.1 4.4
-1 -9 21 1.7 5
21 -1 -9 3 4.9
-1 -21 -9 1.5 4.5
-21 -9 -1 0.4 5.4
21 9 -1 6.6 5.2
-9 -21 1 0.3 4.7
21 1 9 -1.3 3.9
1 -9 -21 0.4 4.9
9 1 -21 0.7 4.8
1 -21 9 -0.7 4.9
3 -9 21 396.66 21.1
21 -9 -3 413.26 22.1
3 -21 -9 401.16 21.1
-9 -3 21 426.06 22.3
3 9 -21 423.76 21.5
9 -21 3 432.86 21.5
21 3 -9 405.56 21.4
-9 -21 -3 421.56 21.4
21 9 3 421.26 21.7
-3 -21 9 401.66 21.4
9 -3 -21 401.06 21.5
-21 -9 3 422.26 22
21 -3 9 418.36 20.6
-21 -3 9 386.06 21.6
-9 -21 3 407.26 21.3
3 -9 -21 365.86 21.5
-21 -9 -3 425.26 21.9
21 9 -3 371.76 21.3
21 3 9 420.36 20.7
-3 -21 -9 425.66 21.6
-3 -9 21 413.56 21.9
21 -9 3 421.26 21.9
3 -21 9 410.76 21.5
21 -3 -9 388.56 21.5
9 3 -21 389.06 21.3
-5 -9 -21 362.06 16.3
9 -5 -21 306.27 17.3
-9 -5 21 308.47 17.3
21 -9 -5 327.37 17.4
21 5 -9 302.87 16.7
-5 -21 9 302.17 16.7
21 9 5 299.57 17
9 -21 5 295.97 16.7
5 -9 21 277.47 15.9
5 9 -21 319.77 17
-9 -21 -5 300.17 16.7
21 -5 9 281.37 16
-21 -9 5 300.27 17
21 -5 -9 298.37 16.9
-21 -9 -5 270.47 17.1
9 5 -21 278.67 16.6
21 9 -5 296.67 16.8
21 5 9 299.97 16.3
-5 -9 21 315.57 17.4
5 -21 9 281.77 16.7
-5 -21 -9 290.17 16.7
-9 -21 5 288.67 16.3
-21 -5 9 265.67 16.9
21 -9 5 265.77 16.9
5 -9 -21 285.57 17.3
7 9 -21 9.9 5.7
-9 -7 21 2.1 5.9
-7 -9 -21 9.9 4.3
-7 -21 9 4.9 5.4
-9 -21 -7 5.5 5.3
-21 -7 -9 6.7 5.7
21 7 -9 4.9 5.4
9 -7 -21 6.8 5.8
9 -21 7 6.5 5.6
21 -9 -7 7.2 5.7
21 9 7 4.6 5.6
-21 -9 7 10.2 5.6
21 -7 9 10.2 5.2
9 7 -21 8.5 5.5
-9 -21 7 8 5.3
-7 -21 -9 7.5 5.6
-21 -7 9 8.2 5.5
7 -9 -21 7.3 6
21 9 -7 11.2 5.6
21 -9 7 5.7 5.9
21 7 9 10.3 5.3
-7 -9 21 6.1 6
7 -21 9 11.3 5.7
21 -7 -9 12.5 5.7
-21 -9 -7 11.7 6
-9 -21 -9 10.2 6
9 -21 9 5.5 6
-9 -21 9 5.7 5.2
-9 -9 21 12.6 6.7
-21 -9 -9 3.4 6.4
21 -9 9 5.4 5.9
21 9 -9 3.1 5.2
-21 -9 9 2.3 5.6
9 21 -9 5.6 5.5
21 -9 -9 4.6 5.8
9 -9 -21 0.9 6.1
9 9 -21 8.9 5.8
-21 -11 1 175.08 12.4
11 -1 -21 178.58 12.3
-11 -21 -1 207.48 12.4
1 -21 -11 185.48 12.1
21 11 1 173.48 12.1
21 -11 -1 174.58 12.6
21 1 -11 186.18 12.1
-1 -21 11 207.68 12.6
11 -21 1 188.38 12.2
1 -11 21 201.68 12.5
21 -1 11 186.08 9.5
21 -11 1 194.28 13
-1 -21 -11 172.58 12
21 -1 -11 189.18 12.3
-1 -11 21 213.48 12.8
11 1 -21 186.98 12.3
-21 -11 -1 201.08 12.9
1 -21 11 139.89 11.7
-11 -21 1 179.08 12.1
21 11 -1 176.68 12.3
21 11 3 1372.06 64.39
-11 -3 21 1322.87 64.49
3 -11 21 1308.97 63.89
11 -21 3 1329.17 64.09
-11 -21 -3 1416.96 64.39
-21 -11 3 1354.26 64.39
21 -3 11 1494.55 62.49
11 -3 -21 1331.67 64.29
-3 -21 11 1419.16 64.39
3 11 -21 1486.35 64.49
21 3 -11 1324.37 64.09
21 -11 -3 1325.67 64.49
3 -21 -11 1345.27 64.09
21 -3 -11 1377.06 64.29
-3 -11 21 1371.56 64.39
3 -11 -21 1369.06 64.49
-11 -21 3 1342.47 64.09
3 -21 11 1373.56 64.29
-3 -21 -11 1354.76 64.29
11 3 -21 1357.36 64.29
-21 -3 11 1291.07 64.29
-21 -11 -3 1375.46 64.49
21 11 -3 1376.36 64.29
21 -11 3 1369.46 64.59
21 -11 -5 1050.29 51.69
11 -5 -21 1075.69 51.59
21 5 -11 1030.1 51.29
-11 -21 -5 1059.49 51.49
-5 -21 11 1134.19 51.59
-5 -11 -21 1075.19 51.19
5 11 -21 1166.98 51.79
21 -5 11 1103.29 49.99
11 -21 5 1088.89 51.49
21 11 5 1085.39 51.59
-21 -11 5 1088.19 51.69
-11 -5 21 1069.69 51.89
5 -11 21 1028.2 50.89
21 -11 5 1106.29 51.89
21 11 -5 1072.69 51.49
-5 -11 21 1099.49 51.79
11 5 -21 1063.79 51.39
-11 -21 5 1107.99 51.29
5 -21 11 1088.59 51.59
21 -5 -11 1055.49 51.49
-21 -11 -5 1043.7 51.69
-21 -5 11 1041.6 51.59
5 -11 -21 1129.69 51.99
-5 -21 -11 1112.99 51.59
21 7 -11 145.99 10.8
-21 -11 7 151.28 11.3
21 11 7 163.18 11.4
7 -11 21 147.39 9.7
21 -7 11 142.39 9.3
-7 -21 11 162.98 11.1
11 21 -7 163.08 10.9
-7 -11 -21 111.99 9.7
21 -11 -7 163.98 11.7
21 -7 11 146.29 9.4
-11 -7 21 156.58 11.8
-11 -21 -7 156.38 11.3
11 -21 7 161.18 11.6
7 11 -21 151.28 11.1
11 -7 -21 140.09 11.2
21 11 -7 139.09 10.8
7 -11 -21 166.48 11.7
21 -7 -11 140.79 11.1
-11 -21 7 149.69 10.7
11 7 -21 151.68 11
-21 -7 11 158.58 11.3
7 -21 11 150.88 11.2
-21 -11 -7 162.48 11.8
-7 -21 -11 156.78 11.3
21 -11 7 120.89 11
-7 -11 21 157.78 11.8
11 21 -9 135.19 9.9
9 11 -21 127.79 10.3
21 -9 11 118.79 9.1
21 -9 11 105.39 9.1
-11 -9 21 103.89 10.3
-21 -11 9 119.19 10.2
-21 -9 -11 100.09 9.9
11 -9 -21 120.69 10.5
-9 -21 11 112.19 9.7
21 -11 -9 101.69 10.2
21 9 -11 130.29 9.8
-9 -11 -21 107.49 8.5
11 -21 9 122.49 10.3
-11 -21 -9 128.09 10.3
-21 -9 11 115.39 10.1
9 -11 -21 127.09 10.8
11 9 -21 113.29 9.9
9 -21 11 141.49 10.8
9 21 -11 132.39 9.8
-21 -11 -9 123.99 10.8
-11 -21 9 131.49 9.9
21 11 -9 118.89 9.8
-9 -11 21 127.39 10.7
-9 -21 -11 121.99 10.3
21 -9 -11 120.59 10
21 -11 9 107.39 10.1
11 -11 -21 427.56 23.4
-21 -11 -11 404.56 23.5
11 11 -21 419.26 22.6
21 11 -11 432.56 22.3
11 21 -11 409.66 22.2
-11 -21 -11 432.76 23.2
21 -11 -11 397.76 22.7
21 -11 11 429.96 23.1
11 -21 11 415.26 22.9
-11 -11 21 406.86 23
-21 -11 11 383.06 22.4
-11 -21 11 412.06 22.3
-21 -13 1 364.66 21.3
21 1 -13 369.96 20.7
-1 -21 13 423.06 21.4
13 -1 -21 355.86 20.8
21 -13 -1 391.76 21.7
1 -21 -13 376.56 20.8
-13 -21 -1 383.66 20.9
1 -13 21 377.06 21.3
21 13 1 435.76 21.7
21 -13 1 411.06 22
-1 -13 21 371.56 21.2
-21 -13 -1 367.46 21.1
21 13 -1 399.06 21.3
1 -21 13 391.06 21.3
21 -1 -13 372.16 20.7
-13 -21 1 387.16 20.8
-1 -21 -13 401.86 21
13 1 -21 387.76 20.9
21 13 3 1663.53 76.69
21 3 -13 1595.64 76.39
21 -13 -3 1637.74 76.99
-3 -21 13 1661.73 76.69
13 -21 3 1632.24 76.59
13 -3 -21 1626.44 76.69
-3 -13 -21 1609.64 76.59
-21 -13 3 1632.44 76.69
3 -13 -21 1740.13 77.29
13 3 -21 1637.04 76.69
21 -3 -13 1568.64 76.49
-21 -13 -3 1648.83 76.89
21 13 -3 1553.84 76.59
-21 -3 13 1568.94 76.69
3 -21 13 1665.23 76.79
-13 -21 3 1611.94 76.49
21 -13 3 1690.03 77.29
-3 -13 21 1688.53 76.89
-3 -21 -13 1743.33 76.89
-5 -21 13 1204.48 58.19
21 5 -13 1172.68 57.89
21 -13 -5 1230.28 58.49
-13 -21 -5 1240.38 58.39
-21 -13 5 1200.18 58.29
-13 -5 21 1285.87 58.69
13 -21 5 1280.37 58.39
13 21 -5 1253.67 58.19
21 13 5 1215.08 58.29
-5 -13 -21 1153.48 57.99
5 -13 21 1177.38 57.89
5 13 -21 1328.87 58.69
13 -5 -21 1173.28 58.29
13 5 -21 1185.88 58.09
21 -5 -13 1229.48 58.19
21 -13 5 1281.47 58.79
5 -21 13 1298.77 58.49
-21 -5 13 1139.29 58.09
-21 -13 -5 1231.98 58.49
-5 -21 -13 1223.58 58.39
21 13 -5 1220.08 58.19
-13 -21 5 1238.18 58.09
5 -13 -21 1288.47 58.69
-5 -13 21 1248.18 58.69
21 -13 -7 187.78 12.7
-13 -21 -7 188.88 12.6
-7 -21 13 163.58 12
13 -21 7 173.98 12.3
13 -7 -21 158.88 12.2
-21 -13 7 151.48 11.9
21 7 -13 176.98 11.9
-13 -7 21 142.69 12.3
7 -13 21 172.18 11.7
13 21 -7 177.68 11.8
7 13 -21 172.18 12.3
-7 -21 -13 194.98 12.8
7 -21 13 179.38 12.6
21 -13 7 161.08 12.6
13 7 -21 155.58 11.8
-21 -7 13 146.89 11.9
7 -13 -21 144.39 12.2
-13 -21 7 169.98 11.8
21 -7 -13 142.99 11.7
-7 -13 21 169.48 12.8
-21 -13 -7 150.58 12.5
21 13 -7 175.38 11.9
21 -13 -9 218.78 14.6
9 13 -21 240.58 14.7
-9 -13 -21 212.58 13.8
13 -9 -21 243.98 15.1
-13 -9 21 231.28 15.2
13 21 -9 221.18 14.2
9 -13 21 220.68 13.6
-13 -21 -9 209.58 14.4
-9 -21 13 224.48 14.5
-21 -13 9 237.28 15
21 9 -13 215.38 14.3
13 -21 9 240.28 14.9
-21 -9 13 207.08 14.3
21 13 -9 216.18 14.4
9 21 -13 221.68 14.5
9 -13 -21 206.98 14.8
21 -13 9 187.98 14.1
21 -9 -13 200.38 14.2
-13 -21 9 213.38 14.2
13 9 -21 197.68 14
-9 -13 21 207.08 14.7
9 -21 13 236.58 14.7
-9 -21 -13 219.68 14.6
-21 -13 -9 208.08 14.8
21 -13 9 204.88 14.9
13 -11 -21 808.92 40.7
-21 -13 11 778.52 40.3
21 -11 13 864.71 39.3
-11 -13 -21 843.02 39.9
-13 -11 21 789.32 40.7
-11 -13 -21 879.31 39.8
21 -11 13 865.41 39.2
21 -13 -11 872.91 40.7
21 11 -13 770.42 40
11 13 -21 682.13 40
13 -21 11 858.31 41
-13 -21 -11 864.51 41
-21 -11 -13 803.52 40.8
13 21 -11 834.22 40
11 -21 -13 768.22 40.5
-11 -21 13 815.32 40.3
-11 -13 21 808.32 40.8
21 -13 11 935.31 41
-11 -21 -13 872.91 41
-21 -13 -11 742.13 41.1
21 -11 -13 811.62 40.4
11 -21 13 819.02 40.9
11 21 -13 830.62 40.2
11 -13 -21 866.91 41.2
13 11 -21 823.12 40.3
-13 -21 11 800.42 40.2
13 -21 -11 786.82 40.4
21 -13 11 820.32 41.2
-21 -11 13 756.02 40.2
21 13 -11 821.62 40.1
21 -13 13 1032.7 50.79
-13 -13 21 1044.8 51.09
13 21 -13 1034.7 50.39
13 -21 -13 984.4 50.69
13 13 -21 1086.99 50.89
21 13 -13 1013.4 50.39
-13 -21 -13 1059.79 51.29
13 -21 13 1225.48 51.79
13 -13 -21 984.1 51.09
21 -13 -13 1034.9 50.89
1 -15 21 22.9 7.4
-15 -21 -1 18.5 6.6
21 -15 -1 26.1 8.1
-21 -15 1 24.3 7.2
21 15 1 23.5 7.3
21 1 -15 24.2 6.7
-1 -21 15 25.9 7.2
1 -21 -15 12 6.7
15 -1 -21 16.2 6.9
1 -21 15 19.1 7.3
-1 -15 21 22.9 7.6
15 1 -21 23.7 6.7
-15 -21 1 18.5 6.6
-1 -21 -15 19.9 7.1
21 -1 -15 15.6 6.4
-21 -15 -1 19.6 7.1
21 15 -1 19 7
21 -15 1 20.8 8.3
21 3 -15 401.76 22.2
21 -15 -3 452.85 23.8
-3 -21 15 420.96 23
21 15 3 420.26 23.3
15 -21 3 440.66 23
-21 -15 3 407.46 22.7
15 -3 -21 411.66 22.6
15 21 -3 425.36 22.6
3 -15 21 408.46 23.4
-3 -15 -21 401.26 23.2
-15 -21 -3 431.56 22.9
15 3 -21 397.76 22.5
3 -15 -21 401.46 23.4
21 15 -3 396.06 22.6
21 -15 3 393.06 24
-3 -21 -15 412.56 22.6
-21 -3 15 394.56 22.6
-21 -15 -3 442.46 23.5
21 -3 -15 403.66 22.3
3 -21 15 452.85 23.4
-15 -21 3 404.06 22.4
-3 -15 21 440.66 23.4
21 -15 -5 277.97 18.1
15 21 -5 303.47 17.5
-15 -21 -5 292.97 17.8
21 15 5 309.47 18.6
-15 -5 21 290.17 18.5
-5 -21 15 281.17 17.6
5 15 -21 349.37 18.4
5 -15 21 279.57 18.5
15 -5 -21 274.17 17.9
21 5 -15 284.87 17.2
-5 -15 -21 289.77 18.6
-21 -15 5 290.37 18
15 -21 5 302.77 17.8
21 -5 -15 278.77 17.3
15 5 -21 285.47 17.5
5 -15 -21 296.37 18.5
21 -15 5 289.67 19.4
21 15 -5 293.17 17.8
-5 -15 21 306.07 18.7
-15 -21 5 282.27 17.2
-21 -5 15 281.37 18
5 -21 15 312.47 18.1
-21 -15 -5 276.57 18.6
-5 -21 -15 304.77 18.1
-15 -21 -7 3.6 7.6
15 21 -7 0.9 6.2
-21 -15 7 2.2 6.8
-15 -7 21 0.3 7.8
7 -15 21 1.9 7.9
-7 -15 -21 -1.5 7.8
-7 -21 15 -2.1 6.8
21 7 -15 0.1 6.3
7 15 -21 0.6 6.8
15 -21 7 4.9 7.4
15 -7 -21 0.7 7.1
21 -15 -7 -3.8 7.2
-7 -15 21 -1.7 7.6
-7 -21 -15 -1.4 7.6
-21 -7 15 0.8 7
21 -7 -15 0.7 6.2
-21 -15 -7 -1.1 7.8
21 -15 7 2.6 8.5
21 15 -7 1.4 6.7
-15 -21 7 2.2 6.5
15 7 -21 0.6 6.8
7 -21 15 0.6 7.4
7 -15 -21 6.4 7.9
9 -15 21 -0.8 8.4
-9 -15 -21 1.3 8.7
-21 -15 9 -3.1 6.8
-9 -15 -21 4.1 9.4
15 -9 -21 2.7 7.6
9 15 -21 -1.3 7.4
-9 -21 15 2.9 7.3
21 9 -15 2.7 6.5
9 -21 -15 -2.5 7.7
15 21 -9 -0.4 6.8
-15 -9 21 -4.4 8
15 -21 9 1.1 8.3
-15 -21 -9 -1 7.9
21 -15 -9 -0.6 7.4
15 -21 -9 5 7.8
15 9 -21 -2.2 7.1
-15 -21 9 2.8 6.8
-21 -15 -9 1.3 9
9 21 -15 0.3 6.8
21 15 -9 1.9 6.5
-21 -9 15 0.7 7
21 -15 9 -1.9 8.4
9 -21 15 1.5 8.1
21 -9 -15 3.4 7.4
-9 -21 -15 0.7 8.3
21 -15 9 -0.6 9.4
9 -15 -21 7.1 8.1
-9 -15 21 2.4 8.4
15 -11 -21 276.27 16.6
15 -21 11 265.57 17.1
15 21 -11 220.18 15.1
11 -21 -15 205.68 16
11 15 -21 279.17 16.9
21 -15 -11 232.08 16
-11 -15 -21 200.58 16.3
-15 -21 -11 233.28 16.5
-15 -11 21 222.08 16.3
21 11 -15 248.68 16.1
-11 -15 21 277.47 17.1
11 -15 -21 297.07 17.5
11 21 -15 259.57 16.4
-11 -21 -15 209.18 16.1
15 -21 -11 193.58 15.7
21 -15 11 231.88 16.9
21 15 -11 213.68 15.3
15 11 -21 258.77 16.6
11 -21 15 276.07 17.1
21 -11 -15 233.88 15.7
-21 -15 -11 227.58 17.4
13 15 -21 450.15 25.3
-15 -21 -13 439.66 26.9
15 -21 13 445.86 27.4
-13 -21 -15 445.06 27.5
13 -21 15 464.65 27.3
-15 -21 -15 42.7 14
21 1 -17 76.39 8.7
17 -1 -21 85.59 9.4
-17 -21 -1 79.99 9.6
21 -17 -1 105.89 11.4
-1 -21 17 84.29 10.1
1 -17 21 95.99 10.7
-1 -17 -21 84.89 10.5
1 -21 -17 76.09 9.6
21 17 1 98.89 10.2
-21 -17 1 78.39 9.7
17 1 -21 82.09 9.3
-1 -17 21 78.59 10.1
21 -1 -17 71.79 8.9
1 -21 17 71.29 9.6
-21 -17 -1 97.89 10.4
21 -17 1 100.69 11.7
21 17 -1 78.99 9.9
-1 -21 -17 71.59 9.9
-17 -21 1 74.29 9.3
21 3 -17 28.2 7.3
21 17 3 39.3 9
17 21 -3 34.6 7.8
-21 -17 3 31 7.9
17 -3 -21 31.8 8.1
-3 -21 17 42.8 8.7
-3 -17 -21 24.9 8.9
17 -21 3 34 8.5
3 -17 21 26.9 9
-17 -21 -3 34.4 8.5
21 -17 -3 27.6 9.1
-3 -21 -17 30.8 8.5
-21 -17 -3 35.8 8.9
17 3 -21 33.5 7.7
-3 -17 21 38.1 9
21 -3 -17 25.6 7.5
3 -17 -21 30.5 9.6
21 17 -3 27.6 8
3 -21 17 26.6 8.4
-17 -21 3 24.6 7.6
21 -17 3 38.2 10.4
17 -21 -3 23.3 8.7
21 -17 -5 118.49 11.6
17 -5 -21 98.59 10.4
17 21 -5 116.39 10.4
-5 -21 17 122.69 11.2
-21 -17 5 101.09 10.5
5 -17 21 107.39 11.9
-17 -21 -5 109.79 11.3
21 5 -17 106.09 9.8
-17 -5 21 78.79 11
17 -21 5 137.79 11.7
5 17 -21 133.09 11.7
-5 -17 -21 112.19 11.6
-21 -17 -5 120.99 11.9
-21 -5 17 99.99 10.7
5 -21 17 107.19 11.4
-5 -17 21 103.99 11.3
5 -17 -21 94.89 11.5
17 -21 -5 84.89 11
-17 -21 5 95.39 10.2
21 -17 5 108.99 12.9
21 -5 -17 120.39 10.3
-5 -21 -17 124.69 12
17 5 -21 98.29 9.9
21 17 -5 97.59 10.3
17 21 -7 38.1 8
17 -21 7 53.69 9.9
-17 -7 21 41.4 9.4
-7 -21 17 54.79 9.3
7 -17 21 35.8 10.6
-7 -17 -21 0.7 10.7
21 -17 -7 39.6 9.7
-17 -21 -7 47 9.7
-21 -17 7 49.99 8.7
21 7 -17 47 7.9
17 -7 -21 50.19 8.9
7 17 -21 54.09 9.4
7 -21 -17 31.8 9.6
-7 -17 -21 55.09 10.9
7 -17 -21 48.2 9.9
-7 -17 21 54.29 9.9
21 17 -7 55.49 8.6
-21 -17 -7 42 10
17 7 -21 41.9 8.5
-7 -21 -17 39.8 9.8
21 -17 7 52.49 11.7
21 -17 7 43.9 9.9
21 -7 -17 49.4 8.4
17 -21 -7 35.2 9.2
7 -21 17 39.8 9.8
9 -21 -17 70.59 11.2
-17 -21 -9 104.09 12.1
-9 -17 -21 82.49 13.8
9 17 -21 84.19 10.7
-9 -17 -21 100.79 13
17 -21 9 101.29 12.1
17 -9 -21 73.79 10.5
-21 -17 -9 95.99 12.6
-9 -21 -17 87.79 12.1
17 9 -21 89.29 10.2
-9 -17 21 78.19 11.3
9 -17 -21 88.89 11.6
9 21 -17 103.59 10.7
21 -17 9 68.29 11.8
21 -17 9 90.39 13.8
9 -21 17 103.69 12.5
11 17 -21 18.2 9.2
17 -21 11 17.7 11.4
-17 -21 -11 32.3 12.1
11 -21 17 22.7 11.9
-11 -21 -17 21 11.3
-21 -17 -11 18.2 12.4
-17 -21 -13 107.09 16
-19 -21 -1 0.1 8.5
19 -21 1 3.5 10.5
-1 -19 -21 0.1 9.8
21 19 1 -7.4 8.9
1 -19 21 1.2 9.5
-21 -19 1 0.4 8.6
19 -1 -21 -1.9 7.9
-1 -21 19 -1.3 8.9
21 -19 -1 -3.5 10
1 -21 -19 2.8 9
-1 -21 -19 -0.4 9.8
19 -21 -1 -2.2 9.8
1 -19 -21 2.3 9.6
1 -21 19 -4.3 9.1
21 19 -1 0 8.6
-19 -21 1 1.1 8.1
21 -19 1 -5.6 10.1
19 1 -21 0.6 7.5
-21 -19 -1 1.5 9.1
-1 -19 21 2.2 9.7
19 -21 3 415.46 26.1
19 -3 -21 378.36 23.1
21 -19 -3 423.56 25.2
-3 -21 19 448.26 24.2
3 -21 -19 411.16 25.6
19 21 -3 390.06 23.3
-19 -21 -3 402.76 24.2
-21 -19 3 368.36 23.3
-3 -19 -21 399.06 25.2
-3 -21 -19 421.76 24.8
21 19 -3 414.06 23.5
19 -21 -3 432.36 25.1
-3 -19 21 432.26 24.9
3 -21 19 390.86 24.7
19 3 -21 363.96 22.8
21 -19 3 420.46 26.4
3 -19 -21 419.36 26
-21 -19 -3 407.36 24.2
-5 -21 19 397.36 24.2
19 -21 5 409.66 25.8
21 -19 -5 350.36 23.9
19 -21 5 381.96 23.9
-19 -21 -5 380.56 23.9
-5 -19 -21 414.76 25.4
5 -21 -19 381.56 25.2
-5 -19 21 370.76 24.4
21 -19 5 393.46 25.8
-21 -19 -5 384.06 24.8
-5 -21 -19 417.56 25.1
5 -21 19 368.56 24.7
5 -19 -21 408.26 25.6
7 19 -21 40.9 10.4
19 -21 7 35.3 14
19 -21 7 29.4 11.1
-19 -21 -7 38.1 10.9
-7 -19 -21 42.7 12.5
-7 -19 21 25.7 10.6
7 -19 -21 33.8 11.2
21 -19 7 34.3 11.2
7 -21 19 45.8 12.6
-7 -21 -19 33.8 11.6
-21 -19 -7 27.5 11.3
21 -19 7 28.2 13.2
19 -21 9 44.5 13
19 -21 9 54.69 15
-19 -21 -9 61.99 13.3
-21 -19 -9 57.69 13.6
-9 -21 -19 33.1 12.8
-1 -21 -21 343.47 21.7
-1 -21 21 321.67 21.3
1 -21 -21 326.07 21
1 -21 21 272.97 20.8
21 -21 1 289.57 21.5
-3 -21 -21 1334.47 64.29
-3 -21 21 1268.57 63.59
3 -21 -21 1317.17 64.19
3 -21 21 1229.18 63.79
21 -21 3 1374.96 64.89
-5 -21 -21 1317.97 63.69
21 -21 5 1239.48 62.19
21 -21 5 1277.67 63.89
0 -22 0 1036.8 49
22 0 0 1038.6 49.3
-2 -22 0 15.1 4.8
2 -22 0 18.2 4.6
22 0 -2 18.7 5.4
22 0 2 17.8 5.2
22 -2 0 18.6 5.4
22 2 0 25.3 5.4
2 0 -22 23.2 5.1
0 -22 2 24.6 5.1
0 -22 -2 22.8 4.7
-22 -2 0 20 5.7
-2 -22 2 167.18 10.9
-2 -22 -2 165.98 11
-22 -2 2 163.68 11.7
22 -2 2 179.78 11.7
22 2 -2 174.08 11.5
22 2 2 179.18 11.5
2 -22 -2 172.48 10.9
2 -22 2 179.68 11.1
2 -2 -22 167.08 11.3
22 -2 -2 182.18 11.6
22 -4 0 113.79 9.2
22 4 0 113.99 9.2
22 0 -4 114.29 9.3
22 0 4 131.79 9.1
-22 -4 0 102.09 9.2
4 0 -22 114.59 9
-4 -22 0 120.79 8.9
4 -22 0 102.69 8.7
0 -22 4 123.59 9
0 -22 -4 135.19 9.2
-4 0 -22 122.39 7
4 -2 -22 624.44 32.3
22 -4 -2 656.73 32.7
22 2 -4 680.53 32.5
4 -22 2 652.43 32.3
22 4 2 685.93 32.5
22 -2 4 598.54 32.1
-4 -22 -2 682.83 32.3
-4 2 -22 659.93 30.7
-2 -22 4 669.33 32.3
-22 -4 2 663.93 32.9
2 -22 -4 661.73 32.2
-22 -2 4 691.63 32.9
-4 -2 -22 705.83 31
4 2 -22 687.13 32.4
-22 -4 -2 655.33 32.8
2 -22 4 675.73 32.3
22 4 -2 659.73 32.6
22 -2 -4 641.64 32.5
-4 -22 2 654.33 32.3
22 -4 2 669.33 32.4
22 2 4 564.94 32.1
4 -22 -2 649.64 32.2
-2 -22 -4 706.43 32.4
-22 -4 4 1564.64 73.19
-4 -22 -4 1545.05 72.69
-4 -22 4 1546.35 72.69
-22 -4 -4 1511.95 72.89
22 4 4 1555.24 72.69
4 -4 -22 1615.74 72.79
4 4 -22 1503.05 72.69
22 -4 -4 1586.04 73.09
22 -4 4 1553.54 72.69
22 4 -4 1536.55 72.89
4 -22 -4 1642.64 72.69
4 -22 4 1583.24 72.79
-4 -4 -22 1557.24 71.69
0 -22 -6 46.8 6.2
6 0 -22 47.3 6.4
22 -6 0 46.7 6.9
-6 -22 0 64.29 6.4
0 -6 22 47.6 6.5
6 -22 0 51.39 6.3
22 0 -6 56.49 6.8
22 0 6 61.39 6.6
22 6 0 50.09 6.6
0 -22 6 59.99 6.7
-22 -6 0 50.69 7.1
-2 -22 6 133.99 9.8
22 -6 -2 133.49 10.3
22 -2 6 126.19 9.5
-22 -6 2 143.39 10.6
6 -22 2 134.59 9.8
22 2 -6 148.69 10.2
2 -22 -6 135.29 9.6
22 6 2 153.18 10.3
6 -2 -22 131.79 9.8
-6 -22 -2 155.58 10
-6 -22 2 133.59 9.7
6 -22 -2 126.19 9.6
-2 -22 -6 131.69 9.7
6 2 -22 134.89 9.8
-2 -6 22 150.08 10.3
22 -6 2 139.89 10.4
-22 -2 6 113.69 10.1
2 -22 6 127.39 9.8
22 6 -2 147.89 10.4
22 2 6 130.89 9.6
22 -2 -6 124.29 10
-22 -6 -2 150.58 10.8
-4 -22 6 927.01 43.9
4 6 -22 916.41 43.9
-6 -4 22 898.31 44.3
4 -22 -6 885.51 43.7
-4 -6 -22 998.2 43.4
-22 -6 4 912.51 44.4
6 -22 4 924.51 44
-6 -22 -4 947.71 43.9
6 -4 -22 922.81 44.1
22 6 4 902.21 44
22 4 -6 979.6 44.2
22 -4 6 805.52 43.6
22 -6 -4 940.21 44.4
4 -6 -22 885.01 44
22 -6 4 902.21 44
4 -22 6 949.71 44.1
6 4 -22 921.71 44
-6 -22 4 930.91 43.9
-22 -4 6 879.51 44.2
22 6 -4 931.81 44.1
-4 -22 -6 937.31 43.9
-22 -6 -4 913.51 44.2
6 -22 -4 893.01 43.7
-4 -6 22 912.21 44.2
22 4 6 909.41 43.8
22 -4 -6 953.7 44.2
-22 -6 -6 427.36 22.2
22 6 6 428.76 21.8
6 6 -22 413.76 21.7
22 -6 6 417.06 21.9
-22 -6 6 418.56 22.1
-6 -22 -6 404.86 21.6
-6 -22 6 401.66 21.5
-6 -6 22 420.96 22.5
6 -22 -6 408.36 21.3
6 -22 6 413.76 21.7
6 -6 -22 405.36 22.2
22 -6 -6 397.36 22
22 6 -6 416.76 22
0 -8 22 322.27 18.1
-22 -8 0 339.17 18.7
0 -22 -8 335.87 17.9
22 0 8 328.87 17.5
22 0 -8 326.47 18.2
-8 -22 0 312.87 17.7
0 -22 8 320.47 17.9
8 0 -22 322.17 18
22 -8 0 328.57 18.6
22 8 0 325.27 18.2
8 -22 0 333.07 17.8
22 8 2 9 5.6
8 -2 -22 8.2 5.4
-2 -22 8 5.5 5.1
22 -2 8 5.3 4.9
2 -8 22 5 5.2
2 -22 -8 4.2 4.9
8 -22 2 2.4 5.1
22 2 -8 4 5
22 -8 -2 6.6 5.7
-8 -22 -2 3.3 4.7
-22 -8 2 7.6 5.6
-8 -22 2 7.2 4.8
-2 -22 -8 7.5 5.1
22 2 8 8.2 4.9
-2 -8 22 2.9 5.4
22 -2 -8 0.9 5.3
22 8 -2 3.2 5.4
2 -22 8 1.3 5.2
-22 -8 -2 4.9 6.2
8 2 -22 3.1 5.2
-22 -2 8 3.5 5.7
22 -8 2 3.8 5.8
8 -22 -2 8 5
-8 -22 -4 186.08 11.9
-22 -8 4 183.08 12.3
22 -4 8 154.68 10.8
22 4 -8 158.08 11.5
-8 -4 22 163.48 12.2
22 8 4 188.78 12.2
-4 -22 8 186.18 11.8
4 -22 -8 167.08 11.2
4 -8 22 184.48 11
4 8 -22 191.18 11.9
8 -4 -22 160.88 11.8
8 -22 4 181.88 11.8
22 -8 -4 187.38 12.3
8 -22 -4 165.98 11.4
-22 -4 8 188.28 12.3
22 -4 -8 165.28 11.8
4 -22 8 189.98 12.1
22 8 -4 159.08 11.7
22 -8 4 188.68 12.4
22 4 8 149.29 10.9
8 4 -22 169.18 11.7
-4 -8 22 186.48 12.3
-8 -22 4 170.08 11.5
-4 -22 -8 182.38 11.9
-22 -8 -4 174.48 12.2
4 -8 -22 177.48 12
8 -22 6 1.5 5.6
22 -8 -6 -1.9 5.6
-22 -6 -8 0.8 6
-22 -8 6 -3 5.6
22 8 6 1.9 5.7
22 -6 8 2.3 5.5
8 -6 -22 2.8 5.8
-8 -22 -6 0.5 5.1
-6 -22 8 -1.9 5
6 8 -22 -0.2 5.4
22 6 -8 0.4 5.1
-6 -8 -22 -0.1 4.2
-8 -6 22 4 6.2
6 -22 8 -0.9 5.3
6 -8 -22 1.9 5.9
-6 -8 22 7.3 6.1
-22 -6 8 1.4 5.5
22 -8 6 -2.1 6.1
22 8 -6 -2.3 5.3
8 6 -22 3.1 5.4
-6 -22 -8 0.1 5.4
-22 -8 -6 -0.7 6.1
22 6 8 -0.3 5.3
-8 -22 6 1.9 4.7
22 -6 -8 1.7 5.7
-22 -8 8 215.08 13.5
22 -8 -8 184.98 13
8 -22 8 145.09 12.3
8 -8 -22 215.88 13.6
8 8 -22 213.58 13.2
-8 -22 -8 183.48 12.8
-8 -22 8 195.28 12.9
-8 -8 22 202.58 13.5
22 -8 8 176.68 12.4
-22 -8 -8 213.48 13.4
22 8 8 216.18 13.6
22 8 -8 186.78 12.7
0 -10 22 87.59 8.7
10 -22 0 80.09 8
22 0 -10 83.59 8.1
10 0 -22 79.19 8.2
22 0 10 77.19 6.5
0 -22 10 81.29 8.2
0 -22 -10 86.39 8.1
22 -10 0 100.49 9.4
-22 -10 0 95.19 9.1
-10 -22 0 82.19 8.1
22 10 0 100.69 8.7
-10 -22 -2 97.89 8.3
10 -22 2 86.49 8.3
2 -10 22 96.59 8.8
2 -22 -10 91.19 8.2
22 2 -10 87.69 8.2
10 -2 -22 101.09 8.9
22 -2 10 93.19 7
22 10 2 89.09 8.6
22 -10 -2 82.69 9
-22 -10 2 95.39 9.2
-2 -22 10 107.09 8.7
-22 -10 -2 79.89 8.7
2 -22 10 85.89 8.4
-22 -2 10 90.99 8.8
10 2 -22 92.29 8.7
22 -2 -10 91.89 8.5
22 -10 2 91.39 9.2
-2 -22 -10 81.89 8.3
22 2 10 75.29 7
10 -22 -2 86.69 8.2
-2 -10 22 98.49 9
22 10 -2 82.89 8.5
-10 -22 2 99.29 8.3
22 -4 10 454.75 22.5
-4 -10 -22 483.15 23.5
-22 -10 4 422.06 23.8
-10 -4 22 441.36 24.4
-4 -22 10 478.25 23.6
-10 -22 -4 450.05 23.5
10 -22 4 422.56 23.4
22 4 -10 429.26 23.4
22 10 4 449.26 23.9
22 -10 -4 457.35 24.3
4 10 -22 476.35 23.8
4 -22 -10 461.35 23.3
10 -4 -22 463.25 23.8
-4 -10 22 451.35 24
-10 -22 4 437.06 23.3
22 -10 4 464.55 24.3
-4 -22 -10 432.76 23.6
-22 -4 10 448.06 23.8
22 4 10 452.55 22.8
4 -22 10 459.25 23.8
22 -4 -10 432.96 23.6
10 4 -22 455.75 23.8
4 -10 -22 446.16 24
22 10 -4 428.26 23.8
-22 -10 -4 456.95 24.3
-10 -22 -6 85.39 8.3
6 10 -22 82.99 8.5
-22 -10 6 75.29 8.5
22 6 -10 86.89 8
22 -6 10 57.39 7
6 -10 22 77.69 7
10 -6 -22 88.49 8.9
22 10 6 93.39 8.8
-6 -22 10 77.59 8.2
10 -22 6 83.69 8.6
-10 -6 22 75.49 8.9
22 -10 -6 70.59 8.7
-6 -10 -22 77.89 7.6
22 -10 6 75.79 8.6
10 6 -22 80.99 8.3
-22 -6 10 72.29 8.6
22 -6 -10 74.09 8.3
-6 -22 -10 87.39 8.6
-22 -10 -6 83.29 9.1
-6 -10 22 79.29 9
22 10 -6 71.39 8.2
-10 -22 6 74.49 7.9
6 -22 10 87.39 8.7
6 -10 -22 71.39 8.6
-22 -8 -10 16.8 7.2
22 8 -10 16.7 6.2
-10 -22 -8 31.1 7
22 -10 -8 16.9 6.9
-8 -10 -22 16.9 5
-22 -10 8 25.5 6.7
8 10 -22 21.4 6.6
-8 -22 10 20.5 6.3
10 -8 -22 15.5 7
-10 -8 22 21.9 7.3
22 10 8 26 7.2
22 -8 10 17.5 6.6
10 -22 8 20.1 6.7
-22 -10 -8 22.7 7.9
22 -8 -10 33.3 7.1
8 -22 10 25.1 7.2
-8 -22 -10 15.4 6.6
-10 -22 8 19.1 6.2
10 8 -22 21.7 6.7
22 -10 8 25 7.4
-8 -10 22 22.9 7.6
8 -10 -22 17.1 7.2
22 10 -8 21.3 6.3
-22 -8 10 16.8 6.4
-22 -10 10 -0.6 6.5
10 10 -22 1.2 6.6
22 -10 -10 0.5 6.4
10 -10 -22 0.9 7.1
-10 -10 22 -0.9 7.6
-10 -22 -10 -1.2 6.7
-10 -22 10 0.1 5.6
22 10 -10 0 6
10 -22 10 2.3 6.8
-22 -10 -10 -1 8
22 -10 10 4.8 7.4
22 0 -12 13.7 5.9
22 -12 0 14.5 7.3
22 12 0 11.6 6.3
12 -22 0 15.1 5.9
0 -22 -12 13.6 6
0 -22 12 17.3 6.3
12 0 -22 15.1 6.3
-12 -22 0 12.3 5.8
0 -12 22 20.2 7
-22 -12 0 10.9 6.7
12 -2 -22 436.56 23.8
2 -12 22 431.56 23.8
12 -22 2 425.26 23.5
-2 -22 12 420.46 23.4
22 12 2 471.45 24.3
-12 -22 -2 451.85 23.5
22 -12 -2 438.56 24.1
2 -22 -12 442.26 23.3
22 2 -12 426.06 23.4
-22 -12 2 438.06 23.9
22 -2 -12 422.06 23.3
12 2 -22 443.26 23.6
-2 -12 22 425.46 24
2 -22 12 475.15 24
22 12 -2 442.96 23.7
-2 -22 -12 554.84 23.9
-12 -22 2 435.86 23.3
-22 -12 -2 450.15 24
22 -12 2 435.56 24.6
-22 -12 4 1211.58 57.29
-4 -12 -22 1165.28 56.99
4 -22 -12 1145.39 56.79
12 -22 4 1227.58 57.19
-12 -22 -4 1233.08 57.19
22 4 -12 1174.28 56.89
12 -4 -22 1160.78 57.09
-12 -4 22 1207.48 57.59
-4 -22 12 1234.58 57.09
22 -12 -4 1156.28 57.29
22 12 4 1236.48 57.29
-22 -4 12 1080.19 56.99
4 -12 -22 1278.77 57.69
-4 -22 -12 1261.37 57.19
22 12 -4 1221.78 57.09
-4 -12 22 1192.88 57.39
4 -22 12 1240.38 57.19
-12 -22 4 1164.28 56.79
-22 -12 -4 1220.58 57.49
12 4 -22 1246.48 57.29
22 -12 4 1278.37 57.79
22 -4 -12 1139.99 56.89
22 6 -12 354.76 20
-12 -22 -6 382.06 20.5
22 12 6 380.36 21.1
22 -12 -6 370.76 21.2
6 -12 22 339.27 20.3
12 -6 -22 369.36 20.6
12 -22 6 364.36 20.6
-12 -6 22 364.76 21.3
6 12 -22 359.06 20.4
-6 -22 12 354.06 20.2
-22 -12 6 338.57 20.6
22 -12 6 364.46 21.6
12 6 -22 385.26 20.3
6 -22 12 360.56 20.5
22 -6 -12 358.06 20.2
-22 -6 12 346.57 20.4
6 -12 -22 376.06 21.2
-22 -12 -6 363.16 21.2
-6 -12 22 363.56 20.8
-12 -22 6 369.26 19.8
-6 -22 -12 366.86 20.4
22 12 -6 350.86 20.2
12 22 -8 18 6.5
12 -22 8 21 7.6
22 -8 12 17.1 4.9
22 -8 12 18.1 4.9
8 12 -22 13.5 7.1
-12 -22 -8 24.7 7.5
12 -8 -22 22.5 7.8
-8 -22 12 27.4 6.6
22 -12 -8 24.5 7.6
-8 -12 -22 17.3 7.1
22 8 -12 19.9 6.6
-22 -12 8 26.6 7.4
8 -12 22 17.8 5.3
-12 -8 22 20.5 8.1
-22 -12 -8 19.3 8.7
12 8 -22 23 7.1
-22 -8 12 13 7
-8 -12 22 23.6 8
8 -12 -22 21.3 7.6
22 -12 8 16.9 8
22 -8 -12 24 7.4
-12 -22 8 21.4 6.6
8 -22 12 14.5 7.4
22 12 -8 17.1 6.6
-8 -22 -12 18.8 7.4
-10 -12 -22 124.79 9.3
-12 -10 22 147.79 12.4
12 -22 10 133.19 11.7
-10 -12 -22 118.99 9.1
-10 -22 12 150.28 11.3
12 22 -10 152.38 11.1
22 -10 12 127.99 10.4
-12 -22 -10 152.88 12.1
22 10 -12 120.29 10.9
22 -10 12 122.99 10.5
-22 -12 10 142.09 11.4
12 -10 -22 133.19 11.9
22 -12 -10 140.09 11.7
10 12 -22 158.58 11.9
10 -12 -22 162.08 12.7
10 22 -12 144.99 11.2
12 10 -22 133.19 11.3
22 -12 10 148.49 12
-10 -22 -12 136.59 11.8
10 -22 12 138.79 11.8
22 12 -10 135.69 11
-12 -22 10 125.59 10.9
-22 -12 -10 157.58 13.2
-10 -12 22 171.18 12.8
22 -10 -12 146.99 11.4
22 -12 10 129.59 12.4
-22 -10 12 132.49 11.6
22 12 -12 501.15 26.1
12 12 -22 540.75 26.6
22 -12 12 469.35 27.4
12 -22 -12 429.56 26.4
22 -12 12 477.45 27.5
12 22 -12 484.25 25.9
12 -12 -22 506.55 27.4
12 -22 12 486.35 27.5
-12 -12 22 492.35 27.1
-22 -12 -12 477.75 28.6
-12 -22 -12 549.25 27.6
22 -12 -12 476.15 26.3
-12 -22 12 452.75 25.8
14 0 -22 99.39 9.5
22 14 0 92.09 9.8
0 -22 -14 96.79 9.2
22 -14 0 83.39 10.2
-14 -22 0 100.39 9.2
0 -14 22 98.69 10.3
-22 -14 0 82.69 9.7
0 -22 14 98.29 9.9
22 0 -14 93.89 8.9
-14 -22 -2 525.15 27.1
-22 -14 2 513.45 27.4
22 14 2 527.45 27.8
-2 -22 14 541.05 27.5
14 -22 2 537.35 27.2
14 -2 -22 506.95 27.2
-2 -14 -22 562.74 27.8
22 -14 -2 526.55 28.2
2 -22 -14 516.45 27
2 -14 22 522.95 27.7
22 2 -14 500.95 26.8
22 14 -2 518.25 27.2
-22 -14 -2 526.35 27.8
-14 -22 2 505.75 27
22 -14 2 528.75 28.4
14 2 -22 491.05 27.1
22 -2 -14 494.25 27
2 -22 14 542.85 27.8
-2 -22 -14 493.65 27.2
-2 -14 22 575.64 28.1
-4 -22 14 1034.7 48.8
22 -14 -4 986.5 49.2
14 -22 4 1043.8 48.8
22 4 -14 987.1 48.4
-22 -14 4 986.4 48.8
-14 -22 -4 1008.8 49
22 14 4 1045.8 49.3
-4 -14 -22 1009 49.1
14 -4 -22 1031.1 49
4 -14 22 1044.7 49.2
14 4 -22 1028.6 48.8
4 -14 -22 1034.7 49.5
4 -22 14 1055.59 49.1
22 -4 -14 949.9 48.5
-4 -14 22 999.6 49.4
-22 -14 -4 1035.8 49.4
-14 -22 4 1001.7 48.6
-4 -22 -14 1022.1 48.9
-22 -4 14 925.41 48.8
22 -14 4 1040.6 49.6
22 14 -4 993.1 48.7
22 14 6 279.47 18.8
22 -14 -6 270.27 17.8
14 -22 6 300.17 17.8
-14 -22 -6 279.47 18.2
-6 -22 14 250.67 17.3
14 22 -6 303.57 17.4
6 14 -22 287.07 18
14 -6 -22 270.87 17.8
-22 -14 6 286.27 17.8
22 6 -14 264.07 17.1
-14 -6 22 293.47 18.5
6 -14 -22 286.17 18.2
-22 -6 14 276.47 17.7
-14 -22 6 286.27 17
-6 -14 22 288.37 18.3
-22 -14 -6 262.57 17.6
22 14 -6 288.37 17.5
6 -22 14 297.57 18.4
14 6 -22 282.57 17.4
22 -14 6 332.47 19.8
-6 -22 -14 277.17 18.3
22 -6 -14 284.57 17.4
-8 -22 14 16.6 7.4
-22 -14 8 17.1 8
-14 -22 -8 11.2 8
14 -8 -22 19.8 8
-8 -14 -22 16.9 8.9
22 8 -14 24.8 6.9
22 -14 -8 21.4 8.2
8 -14 22 14.9 8.3
14 -22 8 18.1 8.2
14 22 -8 19.5 7.1
-8 -14 -22 20 9.3
8 14 -22 15.8 7.8
-14 -8 22 20.7 8.5
8 -22 14 20.8 8.3
-22 -14 -8 17.3 9.2
-8 -22 -14 15.5 8.2
8 -14 -22 16.7 8.7
-14 -22 8 12.1 7
-22 -8 14 7.5 7.3
22 -14 8 13.8 9.8
22 -8 -14 22.4 7.4
14 8 -22 17.3 7.7
22 14 -8 22 7.3
-8 -14 22 15.2 8.4
14 -10 -22 152.88 13.2
-14 -22 -10 195.98 14
14 -22 10 156.38 13.3
22 -14 -10 188.08 13.6
22 10 -14 136.19 12.1
-10 -14 -22 152.68 13.6
-14 -10 22 149.99 13.6
14 22 -10 190.08 12.5
-10 -22 14 153.98 12.6
10 14 -22 213.28 13.9
-10 -14 -22 140.59 13.3
22 -14 10 145.69 13.7
14 10 -22 159.38 12.9
22 14 -10 165.18 12.6
22 -10 -14 137.99 12.6
14 -22 -10 168.08 13.3
-22 -14 -10 165.08 14.8
10 -22 14 164.88 13.3
10 22 -14 163.48 12.6
10 -14 -22 182.28 13.8
-10 -14 22 199.08 14.4
-10 -22 -14 170.98 13.7
14 -22 12 652.43 35.4
14 -12 -22 636.44 34.6
12 -22 14 683.63 35.4
14 12 -22 677.13 34.2
-12 -14 22 673.43 35.2
12 -14 -22 665.73 35.1
-12 -22 -14 649.34 35.3
-14 -22 -14 563.94 32.5
0 -22 16 177.18 13.2
-16 -22 0 159.18 12.6
0 -16 22 148.29 13.4
22 0 -16 141.49 11.9
22 -16 0 170.38 14.1
-22 -16 0 162.98 13.2
16 0 -22 149.29 12.3
22 16 0 177.68 13.2
0 -22 -16 207.68 13.2
2 -16 22 9.2 9
22 16 2 14.3 8.1
2 -22 -16 15 7.7
16 -22 2 13.9 7.9
16 -2 -22 8 7.4
22 2 -16 14.3 6.7
-2 -16 -22 16.4 8.7
-22 -16 2 8.6 7.9
-16 -22 -2 11.1 7.5
22 -16 -2 16 9.1
-2 -22 16 14.5 8
-16 -22 2 11.9 7.4
-2 -22 -16 12.1 8.2
16 2 -22 9.9 7.5
22 -16 2 12.5 9.5
22 16 -2 11.9 7.7
22 -2 -16 14 6.9
2 -22 16 14.1 8.2
-2 -16 22 12.3 8.5
-22 -16 -2 14.2 8.3
22 16 4 57.29 10
-22 -16 4 53.39 9
16 -22 4 51.89 9.1
-4 -16 -22 48.9 10.2
22 4 -16 49.6 8.1
16 -4 -22 49.9 8.8
22 -16 -4 49.5 9.9
-16 -22 -4 66.89 9.4
4 -16 22 50.29 10.1
-4 -22 16 54.19 9.1
-4 -22 -16 51.99 9.5
4 -16 -22 51.19 9.9
4 -22 16 59.89 10
22 -4 -16 43.5 8.3
-16 -22 4 47.9 8.3
22 -16 4 53.59 11.1
-22 -4 16 58.79 9.1
-22 -16 -4 57.59 9.9
-4 -16 22 60.39 10.1
16 4 -22 56.49 8.6
22 16 -4 56.49 9.2
-22 -16 6 -1.1 7.7
16 -6 -22 -0.4 7.6
-6 -22 16 -4.3 7.9
-6 -16 -22 -1.3 10.3
22 -16 -6 2.4 8.8
22 6 -16 1.5 6.7
6 16 -22 -1.8 8.2
-6 -16 -22 -6.6 9.6
-16 -6 22 1.1 8.7
6 -16 22 -1.1 9.8
-16 -22 -6 3.9 8.3
16 -22 6 1 8.5
16 22 -6 1.6 7.2
16 6 -22 -1.4 7.5
6 -22 16 -1.9 8.9
-22 -16 -6 -2.8 9.7
22 -6 -16 0.4 7.2
22 -16 6 1.3 10
16 -22 -6 -3.4 8.2
-6 -16 22 -6 9
6 -16 -22 -1.9 9
22 16 -6 -0.8 7.5
-6 -22 -16 -1 9.1
-16 -22 -8 207.28 15.3
16 -22 8 236.38 16.4
8 -22 -16 184.28 15.3
-8 -22 16 203.28 15.7
16 -8 -22 202.58 15
22 -16 -8 179.48 15
8 16 -22 188.08 14.8
22 -16 8 205.78 16
-8 -22 -16 222.98 15.8
8 -22 16 245.78 16.5
-8 -16 22 196.68 15.7
8 -16 -22 234.98 16.1
16 8 -22 205.68 14.6
-22 -16 -8 228.88 16.6
22 -16 8 230.88 17.4
22 16 -8 196.48 14.4
10 16 -22 49.1 10
-16 -22 -10 41.1 11
16 -22 10 56.59 11.9
10 -22 16 46.9 11.4
-22 -16 -10 57.19 13.3
-10 -22 -16 47.3 11.2
10 -16 -22 40.9 10.9
-10 -16 22 53.89 11.2
16 -22 12 53.89 13.5
-16 -22 -12 65.09 13
-12 -22 -16 54.69 13.4
-18 -22 0 200.18 14.9
18 0 -22 186.88 14.6
22 18 0 218.98 15.5
0 -22 -18 228.28 15.6
0 -22 18 233.78 16.3
22 -18 0 220.68 16.9
0 -18 22 175.38 15.6
18 -22 0 179.08 16.1
-22 -18 0 240.58 16.1
0 -18 -22 198.68 15.7
18 -2 -22 10 8.6
22 -18 -2 19.4 10.7
-2 -22 18 12.4 9.3
-22 -18 2 17.5 9.1
-18 -22 -2 17.8 8.9
-2 -18 -22 17 10.7
22 18 2 20.2 9.6
2 -18 22 20.1 11.1
18 -22 2 3.2 9.3
2 -22 -18 15.5 9.1
18 -22 -2 15.8 10.1
22 -18 2 11.8 10.8
22 18 -2 12.5 8.8
18 2 -22 8.8 8.4
-22 -18 -2 14.8 9.9
-2 -22 -18 10.1 9.7
-2 -18 22 10.6 10
2 -22 18 12.5 10
18 -22 4 97.69 11.7
4 -18 22 77.19 12.8
22 -18 -4 86.69 12.2
-4 -18 -22 105.49 13.1
-18 -22 -4 119.29 12.3
-4 -22 18 105.19 11.7
18 -22 -4 76.49 11.9
-4 -22 -18 98.59 12.3
4 -18 -22 97.09 12.8
4 -22 18 84.39 11.9
22 18 -4 88.19 11.1
-22 -18 -4 79.39 11.9
22 -18 4 101.79 13.7
-4 -18 22 97.29 12.2
-6 -18 -22 8.3 11.9
-6 -18 -22 3.9 12.7
6 18 -22 14.1 9.9
-18 -22 -6 3.1 10.5
18 -22 6 7.1 10.3
6 -22 -18 8.9 10.6
-22 -18 -6 4.3 10.6
-6 -22 -18 11.2 11.1
22 -18 6 2.1 12.9
6 -18 -22 3.5 10.6
6 -22 18 3.6 10.8
-6 -18 22 5 10.3
-18 -22 -8 96.49 13.5
8 18 -22 129.69 13.2
18 -22 8 105.09 13.9
8 -22 18 95.79 14
22 -18 8 115.69 16.5
-8 -22 -18 115.29 14.4
-22 -18 -8 125.99 15
8 -18 -22 113.49 14.9
22 -18 8 111.89 14.6
-18 -22 -10 8.4 12.8
-10 -22 -18 4.8 13
0 -22 -20 45.6 12.2
0 -20 22 42.3 12.6
0 -22 20 47 12.1
0 -20 -22 42.1 12.4
22 -20 0 47.1 13.5
-2 -20 -22 411.06 27.3
2 -22 -20 421.06 26.1
20 -22 2 421.26 26.3
-2 -22 20 421.56 27.2
-2 -22 -20 396.16 26.8
2 -20 -22 433.86 27.2
22 -20 2 456.05 29.2
-2 -20 22 422.06 28
2 -22 20 395.96 26.9
20 -22 4 1067.29 55.09
-4 -20 22 1027.1 54.29
4 -20 -22 1100.59 54.39
22 -20 4 1119.99 55.09
4 -22 20 1014.5 54.39
-4 -22 -20 1155.48 54.79
20 -22 6 493.75 30.5
20 -22 6 498.15 33.5
22 -20 6 498.55 31.1
22 -20 6 543.15 34.4
-1 -23 -1 670.13 32.9
-1 -23 1 649.54 32.8
1 -23 -1 650.03 32.8
1 -23 1 644.24 32.8
23 -1 -1 725.03 33.5
23 -1 1 699.53 33.2
23 1 -1 672.63 33.2
23 1 1 691.73 33.3
-3 -23 -1 3.2 4.2
-23 -3 1 -2.7 5.8
-1 -23 3 -3.2 4.3
3 -23 1 -1 4.4
1 -23 -3 -0.2 4.3
23 -1 3 -3.3 5.2
23 1 -3 5 5.3
23 -3 -1 -1.1 5.5
23 3 1 -0.6 5.2
23 3 -1 7.4 5.3
23 -3 1 -0.1 5.4
23 1 3 -2.8 4.9
23 -1 -3 -2.8 5.3
1 -23 3 -0.5 4.7
-1 -23 -3 -1.4 4.5
3 -23 -1 1.5 4.3
-23 -3 -1 -3.2 5.7
-3 -23 1 -1 4.7
3 -23 3 285.27 15.9
23 -3 -3 292.77 16.6
-3 -23 3 281.17 15.9
3 -23 -3 282.37 15.9
-3 -23 -3 274.27 15.9
-23 -3 3 288.07 16.8
23 3 3 287.87 16.3
23 3 -3 267.97 16.2
23 -3 3 302.37 16.8
5 -23 1 1.1 5
23 5 1 0.3 5.4
5 -1 -23 1.3 5
-5 -23 -1 0.9 4.5
23 1 -5 3.3 5.3
23 -1 5 2.2 5.1
-23 -5 1 -1.4 5.9
23 -5 -1 5.4 5.8
-1 -23 5 2.5 4.7
1 -23 -5 0.4 4.8
1 -23 5 -1.5 4.9
-5 -23 1 3 4.8
23 1 5 4.1 5.2
-1 -23 -5 1.5 4.8
23 -5 1 3.3 5.7
23 5 -1 1.4 5.4
5 -23 -1 2.2 4.4
23 -1 -5 0.2 5.2
-23 -5 -1 2.2 6.2
5 1 -23 3.1 5.1
-3 -23 5 424.66 22.1
3 -23 -5 430.36 22
23 3 -5 403.16 22.4
5 -3 -23 417.16 22.3
-23 -5 3 427.86 22.8
23 -3 5 433.06 22.4
-5 -23 -3 420.06 22.1
23 -5 -3 428.16 23
23 5 3 442.56 22.7
5 -23 3 414.76 22.1
5 3 -23 442.96 22.5
23 -5 3 439.96 22.6
-3 -23 -5 419.26 22
3 -23 5 435.86 22.2
23 3 5 437.46 22.4
5 -23 -3 413.36 21.9
23 -3 -5 453.55 22.9
-5 -23 3 428.86 22
-23 -5 -3 421.86 22.9
23 5 -3 420.76 22.5
-23 -3 5 387.06 22.7
23 -5 -5 786.12 39.6
5 -5 -23 816.92 39.6
-23 -5 5 828.92 39.8
-23 -5 -5 772.22 39.7
5 5 -23 826.32 39.5
5 -23 -5 794.72 39
-5 -23 -5 850.71 39.4
-5 -23 5 805.92 39.2
23 -5 5 810.62 39.5
23 5 -5 841.02 39.6
23 5 5 825.12 39.5
5 -23 5 799.52 39.3
-5 -5 23 812.92 39.9
-5 -5 -23 808.22 37.7
-23 -7 1 367.46 21
23 7 1 371.16 20.6
1 -7 23 367.46 20.7
1 -23 -7 380.96 20.2
7 -23 1 396.56 20.3
23 -7 -1 390.46 21.1
23 -1 7 347.37 20.2
23 1 -7 395.86 20.8
-7 -23 -1 364.86 20.2
7 -1 -23 387.86 20.8
-1 -23 7 392.96 20.4
7 1 -23 381.76 20.9
23 -7 1 391.16 21.4
23 7 -1 416.46 21.1
23 -1 -7 388.26 20.8
7 -23 -1 378.66 20.2
-1 -7 23 407.86 21
1 -23 7 392.66 20.5
-7 -23 1 379.96 20.2
23 1 7 354.56 20.3
-23 -7 -1 371.56 21
-1 -23 -7 398.46 20.6
7 -3 -23 7.1 5.9
23 -7 -3 6.7 6.2
-7 -23 -3 6.1 5
-23 -7 3 3.1 6.1
23 7 3 7.5 6.2
3 -23 -7 2.8 4.5
23 3 -7 2 5.5
-3 -23 7 5.5 4.9
23 -3 7 9.1 5.6
7 -23 3 5.7 5.7
-23 -3 7 6.6 6.1
7 3 -23 13.5 5.8
23 7 -3 3.5 5.8
23 -3 -7 2.9 5.7
-23 -7 -3 1.4 6.2
3 -23 7 3.7 5.3
23 3 7 4.1 5.5
-3 -7 23 0.8 5.9
23 -7 3 3.8 6
7 -23 -3 9.8 5.3
-3 -23 -7 2.4 5.1
-7 -23 3 6.4 4.9
-7 -5 23 106.49 10
7 -5 -23 102.29 9.3
23 7 5 111.89 9.4
-23 -7 5 95.59 9.4
-7 -23 -5 101.59 8.7
23 5 -7 100.19 8.9
5 -23 -7 94.79 8.2
23 -5 7 77.19 8.4
23 -7 -5 96.79 9.2
-5 -23 7 96.09 8.5
-5 -7 -23 88.59 7.2
7 -23 5 99.39 9
7 -23 -5 97.09 8.4
-7 -23 5 98.99 8.4
-23 -7 -5 88.89 9.3
23 -7 5 95.99 9.1
5 -23 7 90.49 8.7
23 7 -5 105.09 9.1
-23 -5 7 105.09 9.4
23 5 7 57.09 7.9
-5 -7 23 106.09 10
7 5 -23 93.49 8.7
-5 -23 -7 105.99 8.8
23 -5 -7 99.79 9.2
5 -7 -23 96.79 9.3
7 -23 -7 140.09 9.8
-23 -7 7 116.19 10.3
7 -23 7 89.59 9.5
7 -7 -23 128.89 10.7
-23 -7 -7 114.79 10.5
23 7 7 126.49 10.3
-7 -23 -7 132.89 10.1
7 7 -23 129.19 10.2
23 -7 -7 123.49 10.5
-7 -7 23 116.69 10.5
23 7 -7 112.29 9.9
23 -7 7 131.49 10.3
-9 -23 -1 544.75 28.4
23 9 1 574.74 28.9
1 -9 23 561.04 28.8
-23 -9 1 531.05 28.9
9 -23 1 550.14 28.4
23 -9 -1 564.34 29
9 -1 -23 559.34 28.8
23 1 -9 583.04 28.7
23 -1 9 584.54 28.2
-1 -23 9 560.64 28.6
1 -23 -9 538.65 28.3
1 -23 9 572.84 28.6
9 -23 -1 553.54 28.4
9 1 -23 587.04 28.9
23 -1 -9 566.74 28.7
23 -9 1 543.15 29.2
23 9 -1 589.64 29.1
-1 -9 23 541.35 28.9
23 1 9 626.94 28.3
-1 -23 -9 544.65 28.5
-23 -9 -1 603.44 29.5
-9 -23 1 568.74 28.5
-9 -23 -3 15.2 5.8
-23 -9 3 12.1 6.9
23 -9 -3 12.2 6.5
9 -3 -23 22.7 6.6
3 -23 -9 14 5.4
23 3 -9 13.8 5.8
9 -23 3 15.4 6
23 -3 9 16.9 5.7
-3 -23 9 15.1 5.8
3 -9 23 7.4 6.1
23 9 3 11.8 6.5
23 -9 3 19.3 7.4
9 3 -23 16 6.3
9 -23 -3 16 5.5
23 3 9 10.1 5.8
23 -3 -9 15.1 6.4
-23 -3 9 10.6 6.5
-23 -9 -3 12.3 7
-3 -9 23 9.1 6.7
-3 -23 -9 18.5 6
-9 -23 3 13.5 5.7
23 9 -3 10.7 6.2
3 -23 9 11.2 6
-23 -9 5 -5.7 6.5
-9 -23 -5 1.7 5.8
9 -23 5 0.3 5.9
5 -23 -9 4.6 5.1
23 -5 9 3.9 5.8
23 -9 -5 1.2 6.3
-5 -9 -23 4.5 5.6
23 9 5 1.8 6.8
-9 -5 23 1.7 6.9
23 5 -9 -0.4 5.5
-5 -23 9 2.3 5.4
9 -5 -23 6.6 6.4
23 5 9 3 6.1
-9 -23 5 1.2 5.2
23 -9 5 -3 6.7
9 5 -23 2.7 5.9
23 -5 -9 0.1 5.9
5 -23 9 2.5 6.1
-23 -9 -5 4.3 7
5 -9 -23 4.4 6.5
-5 -23 -9 -0.2 5.7
-23 -5 9 4.5 6.4
23 9 -5 5.5 6.1
-5 -9 23 5 7.1
-9 -7 23 321.67 18.7
9 -23 7 286.97 17.8
23 9 7 323.87 18.7
-9 -23 -7 288.87 17.8
-7 -9 -23 295.67 15.9
23 7 -9 302.57 17.8
23 -7 9 286.57 18
7 9 -23 328.87 18.3
9 -7 -23 304.37 18.2
-23 -9 7 296.57 18.4
23 -9 -7 298.97 18.3
-7 -23 9 284.67 17.5
-7 -23 -9 300.47 17.8
7 -23 9 309.67 18.4
-23 -7 9 307.47 18.1
9 7 -23 330.07 18.4
23 -9 7 308.67 18.8
23 -7 -9 297.67 18.1
23 7 9 304.27 18.3
-9 -23 7 296.77 17.4
23 9 -7 331.07 18
-23 -9 -7 290.57 19.2
7 -9 -23 323.27 18.8
-7 -9 23 294.87 18.5
-9 -23 9 538.55 27.7
-9 -23 -9 536.85 28.1
-23 -9 -9 513.55 28.9
23 -9 -9 518.85 28.2
9 -9 -23 543.45 28.7
-23 -9 9 509.65 28.2
23 -9 9 552.74 28.6
9 9 -23 605.04 28.6
9 -23 9 574.24 28.5
-9 -9 23 528.85 29
23 9 -9 542.85 28.1
-23 -11 1 122.69 10.7
11 -23 1 111.79 9.6
23 -11 -1 128.29 11
23 -1 11 95.29 6.8
1 -23 -11 105.89 9.5
-1 -23 11 130.49 10.2
1 -11 23 111.29 10.4
-11 -23 -1 99.29 9.4
23 1 -11 109.99 9.7
11 -1 -23 117.69 10.1
23 11 1 114.99 10.1
-1 -11 23 117.49 10.6
23 -1 -11 104.69 9.7
-23 -11 -1 126.09 10.9
11 1 -23 137.19 10.4
-1 -23 -11 116.69 9.7
11 -23 -1 126.89 9.8
-11 -23 1 125.69 9.7
1 -23 11 113.09 9.8
23 -11 1 118.89 10.8
23 11 -1 114.29 10
-3 -11 -23 98.39 10.1
3 -23 -11 129.69 10.2
23 -3 11 115.69 7.6
-23 -11 3 123.39 10.9
11 -3 -23 133.89 10.7
-3 -23 11 121.59 10.3
11 -23 3 122.99 10.4
23 11 3 111.39 10.7
23 -11 -3 119.19 11.1
23 3 -11 133.19 10.2
-11 -23 -3 121.99 10.3
3 -23 11 151.58 10.9
23 -11 3 126.69 11.2
-23 -3 11 139.49 11
23 -3 -11 144.19 10.6
-23 -11 -3 148.69 11.6
-3 -11 23 128.39 11
23 11 -3 135.29 10.7
-11 -23 3 109.39 9.8
11 3 -23 124.09 10.5
-3 -23 -11 119.39 10.3
23 5 -11 136.29 11.1
-23 -11 5 148.99 12
5 -23 -11 155.48 11.2
5 -11 23 114.39 10.8
11 -23 5 154.38 11.7
-11 -23 -5 176.38 11.9
23 -5 11 136.69 9.5
-11 -5 23 149.19 12.4
23 11 5 152.48 11.9
-5 -23 11 165.58 11.7
11 -5 -23 152.68 11.8
23 -11 -5 151.98 12.2
-5 -23 -11 175.98 12
5 -23 11 159.88 11.8
-23 -11 -5 139.29 12.1
23 11 -5 165.68 11.8
23 -11 5 141.59 12
5 -11 -23 158.08 12.2
-11 -23 5 146.69 11
23 -5 -11 152.08 11.6
-23 -5 11 161.78 11.9
11 5 -23 151.98 11.5
-5 -11 23 177.98 12.9
23 -7 11 23 6.5
23 11 7 31.8 8.1
-11 -7 23 19.5 8.2
23 7 -11 20.4 6.7
11 -7 -23 25.1 7.7
-23 -11 7 27.7 7.6
23 -11 -7 20.1 7.6
-11 -23 -7 18.8 7.3
-7 -23 11 21.9 6.8
-7 -11 -23 28.6 7.1
-7 -11 -23 19.4 7.3
23 -7 11 26.1 6.5
7 11 -23 27.1 7.6
11 -23 7 31.7 7.9
23 -7 -11 21.2 6.9
23 11 -7 25.8 7.1
-23 -7 11 16.9 7.5
-23 -11 -7 24.2 8.8
-7 -11 23 26.3 8.3
7 -11 -23 25.2 8.4
-7 -23 -11 28 7.6
-11 -23 7 27.6 6.6
7 -23 11 22.7 7.6
23 -11 7 25.3 8.7
11 7 -23 25.4 7.4
-11 -9 23 147.19 12.5
11 -23 9 145.69 11.9
23 9 -11 125.19 10.6
23 -9 11 92.59 10.4
23 -9 11 116.19 10.8
23 -11 -9 113.59 11.2
-9 -23 11 124.69 10.7
-11 -23 -9 117.09 11.2
9 11 -23 126.09 11.2
-23 -11 9 118.89 10.9
11 -9 -23 153.98 12.3
-23 -9 -11 123.49 12.2
9 -11 -23 127.29 11.9
-23 -11 -9 110.49 12.3
-9 -23 -11 161.18 12
23 -9 -11 143.29 11.5
-11 -23 9 129.59 10.7
23 11 -9 134.89 10.9
23 -11 9 121.49 12.3
11 9 -23 141.39 11.4
-23 -9 11 122.99 11.3
9 -23 11 146.39 11.9
-9 -11 23 134.39 12.3
23 -11 11 3.6 9.3
-11 -11 23 -0.9 8.9
11 11 -23 -0.9 7.9
23 -11 -11 5.6 7.7
23 11 -11 0.1 7.4
-11 -23 -11 0 8.2
23 -11 11 -3.7 9.6
-23 -11 -11 1.7 10.7
11 -11 -23 -4 8.4
-23 -11 11 1.6 8
11 -23 11 -0.6 8.7
-11 -23 11 3.8 7.3
-23 -13 1 55.19 9
13 -23 1 37.3 7.7
-1 -23 13 50.59 8.2
-13 -23 -1 41 7.8
23 1 -13 40.9 7.5
23 13 1 41.8 8.4
1 -13 23 45 8.9
23 -13 -1 50.69 9.4
1 -23 -13 46.7 7.6
13 -1 -23 41 8.1
-13 -23 1 50.29 7.5
1 -23 13 38.2 8
-1 -13 23 41 8.6
23 -1 -13 47.2 7.5
13 1 -23 60.79 8.3
13 -23 -1 43.8 7.5
23 -13 1 51.09 9.4
23 13 -1 46 8.3
-23 -13 -1 44.1 8.6
-1 -23 -13 37.5 7.7
3 -23 -13 603.84 30.7
23 3 -13 594.74 30.5
13 -3 -23 601.94 30.9
13 -23 3 637.74 30.7
23 -13 -3 642.64 31.6
-3 -13 -23 616.44 31.2
-3 -23 13 578.84 30.9
23 13 3 598.64 31.2
-23 -13 3 604.94 31.3
-13 -23 -3 571.74 30.6
23 13 -3 578.64 30.8
-3 -23 -13 624.44 30.9
13 3 -23 605.54 30.9
23 -3 -13 577.94 30.5
23 -13 3 610.54 32
-23 -13 -3 595.44 31.6
-13 -23 3 595.74 30.4
-3 -13 23 593.84 31.6
3 -23 13 595.24 31
13 -23 5 617.54 31.3
-13 -23 -5 615.34 31
-13 -5 23 617.74 32
-23 -13 5 597.04 31.4
5 -23 -13 554.84 30.5
23 -13 -5 592.24 31.5
-5 -23 13 604.04 30.8
23 5 -13 561.14 30.5
23 13 5 624.64 31.6
13 -5 -23 590.64 31.1
13 5 -23 597.74 31.1
-5 -23 -13 617.84 31.4
-23 -5 13 565.84 31
23 13 -5 606.04 31.1
5 -23 13 655.63 31.1
-23 -13 -5 587.44 31.8
-13 -23 5 599.04 30.5
-5 -13 23 634.14 31.8
23 -13 5 652.83 32.3
5 -13 -23 603.34 31.9
23 -5 -13 584.14 30.8
-7 -23 13 20.5 7.6
7 -13 23 18 8.1
-7 -13 -23 17.6 8.9
23 -13 -7 21.6 8.8
13 -23 7 25.4 8.5
-13 -23 -7 21.9 8.2
13 -7 -23 17.3 8.2
-7 -13 -23 21.3 9
-23 -13 7 20.3 8.3
-13 -7 23 25.8 9
7 13 -23 23.2 8.1
23 7 -13 21.5 7.2
23 -7 -13 20.4 7.5
13 7 -23 26.2 7.9
-7 -13 23 17.5 8.7
7 -13 -23 20.5 9
-23 -13 -7 25.5 10.1
-7 -23 -13 24.3 8.4
-13 -23 7 16.9 7.1
23 13 -7 19.3 7.6
7 -23 13 21.3 8.3
-23 -7 13 16.6 8.1
23 -13 7 19.5 9.5
-9 -23 13 -1.1 7.4
-23 -13 9 1.3 8
-13 -23 -9 4.7 8.3
13 -9 -23 0.5 8.5
9 13 -23 1.5 8.1
13 -23 9 1.2 8.5
23 -13 -9 1.6 8.3
-13 -9 23 -4.6 8.8
-9 -13 -23 1.8 9
-9 -13 -23 0 9.2
23 9 -13 0.7 7.3
23 -13 9 -5.8 10.1
9 -23 13 2.2 8.7
9 -13 -23 -4.4 9
23 -13 9 1.2 9.8
-9 -13 23 4.6 9.3
-9 -23 -13 1 8.5
-23 -13 -9 4.8 10.3
23 13 -9 0.5 7.6
23 -9 -13 3.6 7.3
13 9 -23 2.3 7.8
-13 -11 23 165.78 14.8
11 13 -23 178.78 14.1
13 -11 -23 184.58 14.8
13 -23 11 179.78 14.9
-13 -23 -11 176.68 14.6
-11 -23 -13 147.79 14.1
11 -13 -23 208.88 15.3
11 -23 13 160.98 14.5
-11 -13 23 178.48 15.2
13 11 -23 197.58 14.2
13 -23 13 548.45 32.3
-13 -23 -13 577.84 32.1
15 -1 -23 63.39 9.1
1 -23 -15 65.69 9.2
-1 -15 -23 55.29 10.3
1 -15 23 42.9 10
23 -15 -1 73.99 10.7
-15 -23 -1 49.7 8.6
23 15 1 64.49 9.6
-23 -15 1 50.99 9.5
15 -23 1 57.09 8.9
-1 -23 15 61.39 9.5
23 1 -15 57.39 8.6
23 -1 -15 52.09 8.3
-1 -15 23 46.9 9.8
-1 -23 -15 52.79 9.1
23 15 -1 56.19 9.3
15 1 -23 56.09 8.9
23 -15 1 63.79 10.7
-15 -23 1 50.69 8.5
-23 -15 -1 43.4 9.5
1 -23 15 63.19 9.8
23 -15 -3 39 9.7
-23 -15 3 32.5 9.2
23 3 -15 34.7 7.7
-15 -23 -3 31.7 8.4
-3 -15 -23 22.2 9.3
15 -3 -23 34.6 8.5
23 15 3 39.5 9.4
3 -15 23 22.5 9.8
-3 -23 15 39.6 8.6
3 -23 -15 36.3 8.3
15 -23 3 33.6 8.7
-23 -15 -3 35.3 9.5
23 -15 3 39.4 10.4
-3 -23 -15 41.1 9.2
23 15 -3 38.5 8.7
3 -23 15 41.7 9.1
-15 -23 3 31.6 8.1
23 -3 -15 35.8 8
-3 -15 23 39.3 10.1
15 3 -23 40.5 8.3
5 -15 23 37.4 10.6
15 -23 5 43.5 9.5
-5 -15 -23 39.1 10.9
-5 -23 15 44.2 9
23 15 5 39.2 9.8
-15 -23 -5 44.8 9.2
15 -5 -23 49.5 9.1
-23 -15 5 43.4 9.3
-5 -15 -23 46.4 10.6
23 5 -15 44.8 7.8
23 -15 -5 46.9 10
-5 -15 23 49.1 10.3
-23 -15 -5 42.1 10.3
15 5 -23 42.8 8.8
-5 -23 -15 55.99 10
23 15 -5 43.9 8.8
5 -23 15 47.2 10.1
5 -15 -23 51.99 10.3
23 -15 5 43.5 10.8
23 -5 -15 43.6 8.4
-7 -23 15 51.69 9.6
23 -15 -7 46.5 10.2
-7 -15 -23 58.49 12
7 15 -23 67.79 10.3
-7 -15 -23 37 12
15 -23 7 60.29 10.8
-15 -7 23 40 10.7
-15 -23 -7 72.59 10.8
15 -7 -23 56.99 9.9
15 7 -23 56.79 9.3
23 15 -7 52.99 9.3
-7 -23 -15 59.29 10.4
7 -23 15 63.59 10.5
23 -15 7 44.4 12.2
-7 -15 23 66.79 10.7
-23 -15 -7 45.2 11.2
7 -15 -23 52.79 10.7
15 -9 -23 180.68 14.8
-15 -23 -9 216.38 15.7
9 15 -23 190.18 14.8
15 -23 9 205.28 15.4
15 9 -23 172.38 14.2
-9 -15 23 189.08 15.5
9 -23 15 206.88 15.9
9 -15 -23 193.68 15.7
23 -15 9 162.08 15.7
-23 -15 -9 157.18 16.4
23 -15 9 167.58 17
-9 -23 -15 188.18 15.3
-15 -23 -11 8.4 11.3
15 -23 11 1.2 11.7
11 -23 15 10.7 11.4
-11 -23 -15 2.7 11.2
-15 -23 -13 130.39 15.8
-13 -23 -15 104.89 15.4
-1 -17 -23 542.15 30.4
23 17 1 563.94 29.6
1 -23 -17 569.84 29.5
23 -17 -1 541.55 30.1
-1 -23 17 545.55 29.6
17 -23 1 542.25 29.3
-23 -17 1 532.75 29.6
17 -1 -23 443.56 28.6
23 17 -1 602.64 29.8
-1 -23 -17 562.14 29.6
23 -17 1 532.15 30.7
17 1 -23 448.26 28.4
1 -23 17 548.95 29.8
-1 -17 23 494.95 30.2
-23 -17 -1 521.35 29.7
3 -23 -17 89.29 11.2
3 -17 23 74.19 13
17 -23 3 110.39 11.9
-3 -23 17 107.69 12.1
23 17 3 115.39 12.8
23 -17 -3 99.19 12.8
-17 -23 -3 105.29 11.9
-3 -17 -23 81.39 12.8
17 -3 -23 84.29 11.1
3 -23 17 120.29 12.8
23 17 -3 97.09 11.5
17 3 -23 84.19 10.8
23 -17 3 105.19 14
-3 -23 -17 91.59 12.1
-23 -17 -3 101.69 12.4
-3 -17 23 86.19 12.5
17 -23 5 8.8 10
-5 -17 -23 1.5 12.4
-5 -17 -23 8.5 12.3
-17 -23 -5 8.8 10
23 -17 5 3.1 12
5 -17 -23 2.1 11
-23 -17 -5 14.2 11.6
-5 -23 -17 9.6 11
5 -23 17 5.7 10.4
-5 -17 23 12.4 10.8
-17 -23 -7 345.07 22.1
7 17 -23 376.96 22.3
17 -23 7 353.76 21.4
23 -17 7 281.87 20.7
7 -17 -23 292.27 20.6
-7 -17 23 317.37 21
-23 -17 -7 271.07 21
-7 -23 -17 308.67 20.7
7 -23 17 299.07 20.7
17 -23 9 600.24 34.4
-17 -23 -9 566.04 33.8
-9 -23 -17 607.04 34.3
-1 -23 19 35 12.5
-1 -19 -23 35.5 13.3
23 -19 1 36.7 13.6
1 -19 -23 30 12.4
-1 -19 23 32.5 13.3
1 -23 19 32.3 12.2
-3 -19 -23 106.29 15.4
-3 -19 23 123.59 15.5
3 -23 19 116.69 14.7
-3 -23 -19 112.89 14.6
23 -19 3 86.69 15.7
19 -23 5 197.88 19.1
-23 -19 -5 160.28 17
-5 -23 -19 164.58 16.9
23 -19 5 194.18 19.6
0 -24 0 1816.02 84.39
24 0 0 1824.72 84.69
-2 -24 0 668.73 33.2
2 -24 0 688.93 33.2
24 0 -2 676.93 33.8
24 0 2 676.83 33.6
24 2 0 700.43 33.7
0 -24 2 665.23 33.1
24 -2 0 684.83 33.7
0 -24 -2 664.33 33.1
2 -24 -2 296.17 16.3
-2 -24 -2 298.07 16.3
-2 -24 2 274.47 16.2
24 2 -2 273.57 17
24 2 2 316.67 17.2
24 -2 2 275.07 17
2 -24 2 282.37 16.3
24 -2 -2 302.47 17.4
24 -4 0 57.49 7.6
-24 -4 0 50.39 7.9
0 -24 -4 45.4 6.6
0 -24 4 45.3 6.7
24 0 4 51.69 7.3
-4 -24 0 61.49 6.9
4 -24 0 57.19 6.9
24 0 -4 53.69 7.3
24 4 0 59.79 7.5
24 4 2 -2.2 5.7
24 2 -4 1.2 5.7
24 -2 4 -2.5 5.8
-2 -24 4 -1.5 5
-4 -24 -2 4.2 5.1
4 -24 2 0.1 5.2
2 -24 -4 0.3 4.6
24 -4 -2 -0.3 6.1
-24 -4 2 -5.2 6.4
-24 -4 -2 1 6.5
24 2 4 -1.3 5.9
2 -24 4 2.1 5.2
24 4 -2 -4 5.8
24 -2 -4 0.5 5.9
24 -4 2 3 6.4
-2 -24 -4 0.4 5
4 -24 -2 1.8 5
-4 -24 2 3.1 5.1
24 -4 -4 304.47 18.3
-24 -4 4 313.57 19.1
4 -24 -4 301.37 17.3
4 -24 4 370.86 17.9
24 4 -4 331.57 18.3
24 4 4 317.57 18.3
-4 -24 -4 319.97 17.7
-4 -24 4 340.57 17.8
24 -4 4 258.07 18.4
24 6 0 539.55 26.9
-6 -24 0 488.95 26.1
6 -24 0 502.75 26.1
24 -6 0 537.05 27.2
0 -24 -6 522.65 26.3
0 -24 6 531.55 26.4
24 0 6 506.95 26.5
24 0 -6 512.85 26.6
-24 -6 0 501.85 27.2
24 6 2 175.18 11.6
-6 -24 -2 143.09 10.6
-2 -24 6 149.69 10.6
24 -2 6 114.09 10.2
24 2 -6 134.09 10.7
24 -6 -2 163.48 11.9
-24 -6 2 152.38 11.7
6 -24 2 149.69 10.8
2 -24 -6 147.49 10.4
-24 -6 -2 129.89 11.1
-2 -24 -6 151.88 10.6
24 -2 -6 149.59 11.2
24 -6 2 139.89 11.2
24 6 -2 145.59 11.1
24 2 6 122.19 10.5
2 -24 6 159.28 10.8
6 -24 -2 130.39 10.2
-6 -24 2 142.59 10.4
6 -24 4 99.69 8.9
-6 -24 -4 90.39 8.6
-24 -6 4 93.89 9.6
4 -24 -6 95.69 8.3
24 -6 -4 102.69 9.7
24 -4 6 79.69 8.8
24 6 4 86.89 9
-4 -6 -24 96.09 7.7
24 4 -6 108.89 9.3
-4 -24 6 107.09 8.7
-24 -6 -4 84.09 9.5
6 -24 -4 86.39 8.3
24 -6 4 106.99 9.7
-24 -4 6 95.09 9.7
24 6 -4 108.89 9.5
-6 -24 4 90.69 8.5
4 -24 6 95.99 8.9
-4 -24 -6 94.19 8.7
24 4 6 93.59 9.1
-4 -6 24 98.29 9.9
24 -4 -6 96.29 9.3
24 -6 6 0.1 6.7
24 6 -6 3.4 6
24 -6 -6 4.5 6.4
-24 -6 -6 1.8 7.2
-6 -24 6 1.4 5.4
-6 -6 24 4 7.5
-24 -6 6 1.5 6.8
-6 -24 -6 2.4 5.6
6 -24 -6 0.5 5.4
6 -24 6 -0.3 5.8
24 6 6 -0.3 6.5
24 0 -8 1307.67 62.29
8 -24 0 1339.77 61.99
0 -8 24 1248.68 62.29
24 8 0 1411.86 62.59
24 0 8 1327.67 61.89
8 0 -24 1310.07 62.19
-8 -24 0 1264.67 61.89
0 -24 -8 1325.67 61.99
24 -8 0 1333.77 62.49
-24 -8 0 1301.17 62.59
0 -24 8 1321.97 62.09
24 -2 8 681.63 34.8
-24 -8 2 687.93 35.7
8 -2 -24 756.52 35.5
24 2 -8 702.53 35.1
24 -8 -2 751.62 35.9
-8 -24 -2 708.73 34.9
-2 -24 8 707.63 34.9
2 -24 -8 665.93 34.7
8 -24 2 694.53 34.8
24 8 2 663.43 35.2
-8 -24 2 704.93 34.8
-2 -8 24 720.23 35.7
-24 -8 -2 718.03 35.8
8 2 -24 749.62 35.4
24 -8 2 736.03 35.7
24 -2 -8 695.53 35.2
2 -24 8 699.33 35
8 -24 -2 717.03 34.8
24 8 -2 736.63 35.5
-2 -24 -8 704.13 34.9
24 8 4 86.19 9.3
8 -24 4 80.29 8.6
24 -8 -4 72.99 9.1
24 -4 8 74.09 8.4
8 -4 -24 83.99 9
4 -24 -8 74.79 8.1
-4 -8 -24 89.59 8.3
-4 -24 8 79.79 8.3
-24 -8 4 65.89 9.2
-8 -24 -4 87.69 8.5
24 4 -8 81.59 8.7
-24 -8 -4 82.79 9.8
-24 -4 8 84.59 9.3
4 -24 8 89.19 8.9
24 8 -4 78.99 8.9
24 4 8 89.59 9.1
-4 -24 -8 85.89 8.6
8 4 -24 87.09 8.9
24 -4 -8 89.29 9.1
-8 -24 4 90.39 8.4
8 -24 -4 89.19 8.1
24 -8 4 100.19 10.1
-4 -8 24 79.89 9.5
-8 -24 -6 351.46 19.6
8 -24 6 329.87 19.4
24 6 -8 336.77 19.5
24 8 6 395.46 20.8
-8 -6 24 330.07 20.7
-6 -8 -24 381.06 17.5
-6 -24 8 341.57 19.2
24 -6 8 309.87 19.9
8 -6 -24 322.67 20
6 -24 -8 340.57 18.8
24 -8 -6 332.57 20.2
-24 -8 6 347.27 20.1
-24 -6 8 340.57 20.2
-6 -24 -8 323.27 19.2
-6 -8 24 336.07 20.9
24 -6 -8 320.97 19.7
-8 -24 6 337.77 19
24 -8 6 346.97 20.5
8 -24 -6 314.87 18.8
-24 -8 -6 334.97 20.8
24 6 8 354.76 20.2
24 8 -6 341.57 19.6
8 6 -24 344.57 19.9
6 -24 8 362.96 19.6
-24 -8 8 1043.3 53.79
-8 -24 8 1139.49 53.49
-8 -8 24 1059.59 54.29
24 8 8 1142.89 53.99
8 -24 8 1158.08 53.89
8 -8 -24 1138.39 54.19
8 8 -24 1152.38 53.99
24 -8 -8 1097.59 53.79
24 -8 8 1136.09 53.99
24 8 -8 1133.19 53.69
8 -24 -8 1128.09 53.39
-8 -24 -8 1145.09 53.79
24 -10 0 1105.19 53.39
0 -24 -10 1040.6 52.49
0 -24 10 1148.79 52.79
24 10 0 1149.78 52.99
24 0 10 1094.09 51.89
10 0 -24 1155.88 53.09
10 -24 0 1110.49 52.59
-24 -10 0 1088.09 53.29
-10 -24 0 1090.79 52.59
0 -10 24 1052.09 52.99
24 0 -10 1111.19 52.69
2 -24 -10 410.36 22.2
24 -10 -2 428.46 23.5
-10 -24 -2 423.76 22.4
-24 -10 2 432.96 23.6
10 -2 -24 432.56 23.2
-2 -24 10 392.46 22.3
10 -24 2 408.16 22.4
24 -2 10 372.66 21.7
24 2 -10 396.16 22.3
24 10 2 384.86 23.1
24 2 10 436.86 22.2
10 2 -24 435.66 23
24 -10 2 427.66 23.8
-10 -24 2 421.66 22.2
-2 -10 24 413.46 23.5
10 -24 -2 395.46 22
-2 -24 -10 399.86 22.3
24 -2 -10 410.16 22.5
2 -24 10 429.26 22.8
-24 -10 -2 430.26 23.9
24 10 -2 442.26 22.9
10 -24 4 32.6 7.5
4 -24 -10 28.1 6.6
24 -4 10 28.2 6.9
24 4 -10 33.9 7.1
-24 -10 4 35.3 8.3
-10 -24 -4 35.3 7.1
-4 -10 -24 28.6 7.6
24 10 4 36.6 8.1
24 -10 -4 43.2 8.3
-4 -24 10 30.1 6.9
10 -4 -24 37.6 7.8
10 -24 -4 27.2 6.7
24 10 -4 26.8 7.5
-24 -10 -4 23.8 8.5
24 -4 -10 31.4 7.2
-10 -24 4 31.1 6.6
-24 -4 10 34 7.9
-4 -24 -10 23.1 7.2
4 -24 10 32.2 7.7
24 4 10 19.6 7.2
10 4 -24 31.4 7.5
-4 -10 24 32.9 8.7
24 -10 4 30.2 8.6
10 -24 6 237.18 14.8
-6 -10 -24 190.08 13.3
-6 -24 10 205.18 14
6 -24 -10 205.08 13.7
24 -6 10 190.58 13.4
24 6 -10 205.78 14.1
24 -10 -6 234.28 15
-24 -10 6 177.58 14.3
24 10 6 237.08 15.1
-6 -10 -24 187.18 13.2
10 -6 -24 238.88 15.1
-10 -6 24 208.08 15.1
-10 -24 -6 239.18 14.4
24 -6 -10 215.08 14.3
10 6 -24 226.48 14.6
-6 -24 -10 200.98 14.1
-24 -10 -6 210.88 15.5
-24 -6 10 224.18 14.5
6 -24 10 201.38 14.2
24 -10 6 215.18 15.1
24 10 -6 199.08 14.1
-10 -24 6 189.68 13.6
-6 -10 24 226.98 15.4
24 -8 10 742.23 37.1
24 10 8 780.12 37.5
-24 -10 8 711.83 37
-8 -24 10 712.93 36.4
24 8 -10 693.53 36.5
-10 -8 24 747.23 37.6
-10 -24 -8 775.02 37.2
10 -8 -24 753.12 37.2
8 10 -24 774.12 37.2
24 -10 -8 709.63 37
-8 -10 24 706.13 37.7
8 -24 10 745.33 37.1
8 -10 -24 753.02 37.5
-8 -24 -10 767.02 36.9
24 -8 -10 727.93 37
24 -10 8 747.63 37.7
-24 -10 -8 695.03 38
-10 -24 8 696.33 36.3
-24 -8 10 698.13 36.8
10 8 -24 781.92 37.2
24 10 -8 733.23 36.8
10 10 -24 649.43 32.3
10 -10 -24 645.64 32.9
-10 -10 24 606.24 33
24 -10 -10 603.34 32.1
-24 -10 10 565.44 31.9
10 -24 10 674.03 32.4
-10 -24 -10 602.34 32
24 10 -10 603.64 31.5
24 -10 10 605.34 33.1
24 12 0 81.19 9.7
0 -24 12 91.29 9.6
24 -12 0 86.19 10.5
-12 -24 0 79.89 9
0 -12 24 91.49 11
12 -24 0 78.89 9
24 0 -12 88.89 9.1
-24 -12 0 93.89 10.6
12 0 -24 81.19 9.8
0 -24 -12 88.59 9.4
24 -12 -2 11 8.5
2 -24 -12 6.4 6.4
-12 -24 -2 11.2 6.7
24 12 2 11.2 8.1
12 -2 -24 11.3 7.7
24 2 -12 9.6 6.8
-24 -12 2 12.7 8
12 -24 2 9.1 7.1
-2 -24 12 10.7 7.1
2 -12 24 8.8 8.7
-2 -24 -12 13.7 7.6
24 -12 2 10.8 9
-2 -12 24 10.5 8.5
12 -24 -2 10.9 6.6
-24 -12 -2 5.7 8.3
-12 -24 2 13.9 6.7
2 -24 12 8.4 7.4
24 12 -2 8.5 7.4
12 2 -24 9.7 7.4
24 -2 -12 7.3 7.2
-4 -12 -24 316.47 21.1
12 -4 -24 344.57 19.9
24 12 4 359.16 20.8
-24 -12 4 317.97 20.2
24 4 -12 318.17 19.2
-12 -24 -4 334.27 19.9
24 -12 -4 351.46 20.7
4 -24 -12 301.67 19.2
-4 -24 12 322.77 19.9
12 -24 4 336.47 20.1
-4 -12 24 315.97 21
-24 -12 -4 326.87 21.1
4 -24 12 362.16 19.9
24 12 -4 389.36 20.6
-12 -24 4 307.47 19.1
-4 -24 -12 340.67 20.2
24 -12 4 336.17 21.5
12 4 -24 346.97 20.2
24 -4 -12 318.47 19.5
-24 -4 12 307.77 20.1
12 -24 6 39 8.8
-24 -12 6 40.9 9
-6 -12 -24 28.5 9.6
24 12 6 27.6 9
-6 -24 12 29.3 8
6 -24 -12 54.69 8.2
24 -12 -6 38 9.3
24 6 -12 40.4 7.8
-6 -12 -24 35.7 9.7
-12 -24 -6 42.2 8.5
-12 -6 24 42.5 9.8
12 -6 -24 32.4 8.8
-6 -12 24 34.8 9.8
-24 -6 12 34.3 8.7
24 -6 -12 45.8 8.2
24 12 -6 40.2 8.4
-6 -24 -12 42.6 9
6 -24 12 45.4 8.8
-12 -24 6 36 7.7
12 6 -24 41.1 8.6
24 -12 6 33.8 10
-24 -12 -6 34.1 10.2
-12 -8 24 80.99 11.4
-12 -24 -8 91.69 10.7
24 -12 -8 65.79 10.3
12 -24 8 78.29 10.3
-24 -12 8 75.39 10.1
12 -8 -24 75.49 10.5
-8 -12 -24 76.69 9.7
-8 -12 -24 63.09 9.8
8 12 -24 98.59 10.9
24 8 -12 77.49 9.4
24 -8 -12 74.09 9.8
-24 -12 -8 54.29 11.7
-8 -24 -12 81.59 10.4
8 -24 12 76.89 10.4
-8 -12 24 78.49 11.4
24 -12 8 68.89 11.9
24 12 -8 62.79 9.6
8 -12 -24 68.99 10.7
12 8 -24 85.89 10.1
12 -24 10 27.5 10.2
-12 -24 -10 24.7 9.9
-12 -10 24 26.4 10.6
10 12 -24 22.3 9.2
12 -10 -24 28.2 10.3
10 -24 12 20.5 9.8
-24 -12 -10 19.9 12.9
10 -12 -24 18.3 10.2
-10 -12 24 18.2 10.6
-10 -24 -12 20.7 9.7
12 10 -24 20.4 9.3
12 -24 12 139.39 14.4
12 12 -24 145.99 13.7
-12 -24 -12 138.39 14.1
12 -12 -24 151.88 14.6
14 0 -24 140.89 12.6
24 -14 0 194.98 14.9
0 -24 -14 174.58 12.9
24 0 -14 137.99 12
24 14 0 177.28 13.4
-14 -24 0 149.39 12.2
0 -24 14 156.78 13
14 -24 0 148.29 12.4
-24 -14 0 155.48 13.4
-2 -14 -24 2.2 9.3
2 -14 24 10.1 10.1
-14 -24 -2 12.9 7.8
-24 -14 2 5.8 8.9
14 -24 2 14.4 8
24 14 2 9.6 8.7
24 -14 -2 7.4 9.9
-2 -24 14 10.3 8.1
24 2 -14 5.8 7.1
2 -24 -14 4.5 7.7
14 -2 -24 2.7 8.2
24 -2 -14 12.5 7.8
24 14 -2 12.8 8.4
-24 -14 -2 10.2 9.3
2 -24 14 12.9 8.5
14 2 -24 6.6 8
-14 -24 2 6.8 7.1
24 -14 2 13.6 10.3
14 -24 -2 9.1 7.8
-2 -24 -14 11 8.6
-2 -14 24 11.7 9.3
4 -24 -14 50.09 8.9
-14 -24 -4 56.99 9.7
14 -24 4 57.89 9.7
-4 -24 14 53.19 9.4
4 -14 24 48 11.7
-4 -14 -24 54.09 11.3
24 14 4 58.29 10.2
-24 -14 4 65.09 10.5
14 -4 -24 61.89 9.7
24 4 -14 50.89 8.8
24 -14 -4 65.49 11.1
-4 -14 -24 39.4 10.8
24 -4 -14 55.89 9
-24 -14 -4 48.1 10.9
14 4 -24 56.89 9.1
24 -14 4 51.29 11.3
24 14 -4 49.6 9.3
-4 -24 -14 65.39 10.3
4 -24 14 74.09 10.4
-4 -14 24 66.19 11.2
-6 -14 -24 7.8 11.3
14 -24 6 14 9.7
-14 -6 24 5.4 10
-14 -24 -6 10.5 9.1
14 -6 -24 8.7 8.7
-6 -14 -24 3.4 11.1
24 -14 -6 7.4 9.6
6 -14 -24 4.4 9.7
-6 -14 24 5.2 9.8
24 14 -6 14.8 8.6
14 6 -24 8.9 8.5
24 -14 6 4.3 11.1
-24 -14 -6 7.7 11.3
-6 -24 -14 8.7 9.1
6 -24 14 11.4 9.3
14 -8 -24 245.38 16.6
8 14 -24 278.87 17.2
-14 -24 -8 223.58 16.7
14 -24 8 222.98 16.2
14 8 -24 197.78 15.5
24 -14 8 203.18 18
-8 -24 -14 225.28 16.4
8 -14 -24 204.48 16.8
-8 -14 24 186.18 16.4
8 -24 14 228.28 16.6
14 -24 10 73.49 12.6
10 14 -24 92.99 12.1
-14 -24 -10 71.69 12.5
-10 -24 -14 98.19 13.4
10 -24 14 96.19 13.3
10 -14 -24 97.69 13.4
-14 -24 -12 81.19 14.2
14 -24 12 65.09 13.9
-12 -24 -14 93.99 14.8
16 0 -24 742.83 39.7
-24 -16 0 756.22 40.2
0 -16 24 708.13 40.9
0 -24 16 785.72 40
0 -24 -16 811.02 39.8
24 -16 0 811.82 41.2
24 16 0 864.91 40.5
-2 -24 16 422.46 24.7
-24 -16 2 387.16 25.2
2 -16 24 412.66 25.6
24 -16 -2 452.15 26.7
-2 -16 -24 397.86 26.6
16 -2 -24 419.66 24.6
24 16 2 459.55 26.1
-24 -16 -2 410.06 26.2
24 16 -2 430.86 25.3
-2 -16 24 408.06 26.4
24 -16 2 458.95 26.4
16 2 -24 393.16 24.3
-2 -24 -16 443.26 25.3
2 -24 16 388.86 25.4
16 -24 4 90.39 12
-4 -16 -24 66.79 13.8
24 -16 -4 86.19 12.7
24 16 4 66.79 11.8
-4 -16 -24 55.09 13.2
-4 -16 24 87.39 13.1
4 -24 16 88.19 12.2
24 -16 4 83.89 13.9
-4 -24 -16 75.09 12.3
-24 -16 -4 72.99 12.9
16 -24 6 176.68 15.5
-6 -24 -16 195.78 16
6 -16 -24 224.78 17
-24 -16 -6 142.09 16.2
-6 -16 24 203.88 16.6
24 -16 6 178.38 17.6
6 -24 16 171.58 15.7
8 16 -24 894.61 44.3
16 -24 8 831.22 44.8
-8 -24 -16 888.01 45
8 -16 -24 866.41 44.5
8 -24 16 818.92 44.8
0 -18 -24 578.54 35.9
24 -18 0 675.03 35.8
-2 -18 -24 233.28 19.4
-2 -18 24 188.38 18.4
2 -24 18 191.68 17.5
24 -18 2 260.87 20
-4 -18 24 1 14.1
-24 -18 -4 10.6 13.5
4 -24 18 4.1 12.6
24 -18 4 -8.1 14.4
-1 -25 -1 1315.07 62.79
-1 -25 1 1304.47 62.79
1 -25 -1 1297.47 62.79
1 -25 1 1309.57 62.79
25 -1 -1 1367.16 63.29
25 -1 1 1344.27 63.19
25 1 -1 1377.26 63.29
25 1 1 1401.16 63.29
-3 -25 -1 191.98 12.9
25 -3 -1 223.28 14.2
-1 -25 3 197.38 13.2
3 -25 1 189.68 12.9
25 3 1 231.58 14.1
25 -1 3 198.98 13.7
25 1 -3 218.58 14.1
1 -25 -3 201.48 13.1
25 -1 -3 209.48 13.7
-1 -25 -3 195.38 13
3 -25 -1 189.08 13
25 1 3 224.98 14.2
1 -25 3 183.08 12.9
-3 -25 1 195.18 13
25 -3 1 230.38 14.2
25 3 -1 202.48 13.7
3 -25 3 -2.8 5.2
-3 -25 -3 3.4 5.5
-3 -25 3 1.7 5
3 -25 -3 2.5 5.5
25 3 -3 -3.5 6.3
25 3 3 1.3 6.8
25 -3 3 1.4 6.8
25 -3 -3 2.9 6.7
25 -5 -1 296.77 17.9
5 -25 1 271.07 16.1
1 -25 -5 269.17 16.1
25 5 1 267.97 16.8
-25 -5 1 231.58 16.9
25 -1 5 276.27 17.3
25 1 -5 281.67 17.1
-1 -25 5 277.37 16.2
-5 -25 -1 275.07 16.1
1 -25 5 278.47 16.4
5 -25 -1 268.37 16.1
-1 -25 -5 282.17 16.1
-5 -25 1 269.97 16.1
25 1 5 293.27 17.3
-25 -5 -1 276.37 18
25 -1 -5 281.07 17
25 -5 1 286.97 17.5
25 5 -1 285.27 17.4
5 -25 3 5.4 5.7
3 -25 -5 5.9 5.7
-5 -25 -3 5.3 5.6
25 5 3 5.5 6.7
25 -5 -3 3.1 7
25 -3 5 -0.4 6.7
25 3 -5 10.4 6.7
-3 -25 5 9.8 5.6
-25 -5 3 7.7 7.3
5 -25 -3 3.1 5.6
25 -5 3 7.8 7
3 -25 5 9.2 5.9
25 3 5 11.5 6.9
-5 -25 3 6.2 5.7
25 -3 -5 8.2 7
-3 -25 -5 5.2 5.8
25 5 -3 3.3 6.6
25 -5 5 39.4 8.2
-25 -5 5 39.5 8.3
-5 -25 -5 41.9 7
25 5 -5 44.6 7.9
-5 -25 5 46.3 7.1
5 -25 -5 35.6 6.5
25 -5 -5 42.5 8.1
25 5 5 32.5 7.8
5 -25 5 45.1 7.2
-7 -25 -1 1004.3 46.8
-1 -25 7 966 46.8
1 -25 -7 964.3 46.7
-25 -7 1 994 47.7
25 7 1 953.5 47.1
7 -25 1 986.4 46.8
25 1 -7 979.5 47.1
25 -7 -1 982.3 47.6
25 -1 7 884.31 46.8
25 7 -1 1039.8 47.5
25 -7 1 1017.8 47.6
7 -25 -1 955.9 46.7
-7 -25 1 948.21 46.6
25 1 7 1011.4 47.2
-25 -7 -1 1001.5 47.8
1 -25 7 952.1 46.8
-1 -25 -7 994.6 46.8
25 -1 -7 924.81 47
7 -25 3 137.09 11.4
-7 -25 -3 166.48 11.6
25 3 -7 155.48 11.9
3 -25 -7 154.38 11.2
-25 -7 3 135.09 12.2
-3 -25 7 177.58 11.7
25 -3 7 136.69 11.6
25 -7 -3 195.88 13.1
25 7 3 154.98 12
25 7 -3 194.08 12.7
25 -7 3 160.48 12.4
7 -25 -3 152.08 11.2
-25 -7 -3 140.99 12.4
3 -25 7 170.18 11.9
-7 -25 3 155.58 11.4
25 3 7 147.09 11.8
-3 -25 -7 161.68 11.5
7 -25 5 82.29 8.8
25 5 -7 84.39 9.1
25 -7 -5 86.49 9.7
-25 -7 5 94.99 10.2
25 7 5 77.99 9.3
-5 -25 7 82.99 8.5
-5 -7 -25 77.29 6.9
-7 -25 -5 78.59 8.7
-5 -7 -25 71.19 6.7
25 -5 7 69.09 9.3
5 -25 -7 67.89 8.1
-7 -25 5 79.19 8.4
25 5 7 76.79 9.4
5 -25 7 92.99 9.2
25 7 -5 63.19 8.9
-25 -7 -5 65.89 10.1
-25 -5 7 87.99 9.9
-5 -25 -7 83.29 8.7
25 -5 -7 96.29 9.7
25 -7 5 101.09 10.4
-5 -7 25 86.59 10.4
7 -25 -5 61.79 7.9
-7 -7 25 580.34 32
7 -25 -7 604.44 30.4
-7 -25 -7 598.34 30.9
-7 -25 7 609.64 30.7
-25 -7 7 567.04 31.6
25 7 -7 599.74 31
25 -7 -7 685.63 31.9
25 -7 7 458.35 31.4
25 7 7 735.73 32
7 -25 7 631.24 31.3
25 -9 -1 1516.95 69.59
9 -25 1 1398.26 68.69
25 9 1 1519.75 69.39
-9 -25 -1 1377.66 68.59
-1 -25 9 1450.25 68.79
1 -25 -9 1456.55 68.69
25 1 -9 1469.25 68.99
9 -1 -25 1481.95 69.29
25 -9 1 1541.05 69.59
-9 -25 1 1418.16 68.69
-25 -9 -1 1461.35 69.59
-1 -9 25 1459.95 69.49
9 -25 -1 1463.95 68.79
25 9 -1 1519.05 69.19
25 -1 -9 1482.05 68.99
1 -25 9 1436.06 68.89
-1 -25 -9 1423.56 68.79
9 1 -25 1464.55 68.99
25 1 9 1484.75 68.69
25 3 -9 398.16 22.9
-9 -25 -3 432.26 22.9
3 -25 -9 421.86 22.6
25 9 3 422.56 23.5
-25 -9 3 426.06 23.9
9 -25 3 415.66 23.1
-3 -25 9 396.46 22.7
25 -3 9 396.76 23.3
9 -3 -25 437.16 23.7
25 -9 -3 455.25 24.2
9 -25 -3 408.46 22.5
9 3 -25 425.36 23.4
25 -3 -9 406.36 23.2
3 -25 9 399.66 22.9
25 -9 3 422.06 24.3
25 9 -3 431.76 23.4
-25 -9 -3 455.75 24.7
25 3 9 440.06 23.8
-3 -25 -9 400.26 22.8
-9 -25 3 426.46 22.5
5 -25 -9 370.66 21.5
25 -9 -5 437.76 23.5
-5 -25 9 414.76 22
25 9 5 427.36 23.8
-5 -9 -25 411.26 22.1
-5 -9 -25 432.66 22.3
9 -5 -25 405.06 22.9
-25 -9 5 391.36 23
25 5 -9 399.86 22.2
25 -5 9 409.66 23.1
9 -25 5 412.86 22.7
-9 -25 -5 378.36 22
-25 -9 -5 366.06 23.8
25 -9 5 433.86 23.9
-9 -25 5 403.06 21.7
25 5 9 334.67 23.2
25 -5 -9 393.46 22.5
9 -25 -5 397.86 21.6
25 9 -5 379.46 22.3
-25 -5 9 380.76 23.1
9 5 -25 385.76 22.8
-5 -25 -9 387.96 22.1
5 -25 9 416.66 22.8
-5 -9 25 381.66 23.7
25 -7 9 998.6 47.7
7 -25 -9 980.7 46.7
25 -9 -7 995.9 47.8
-9 -25 -7 980.2 47.1
-7 -25 9 971 47
-25 -9 7 859.81 47.2
-9 -7 25 995.7 48
9 -7 -25 1012.4 47.8
25 7 -9 961 47.1
-25 -7 9 913.61 47.4
25 -9 7 956 48
9 7 -25 1021.6 47.6
7 -25 9 1056.89 47.7
9 -25 -7 958.3 46.7
-7 -25 -9 991.5 47.2
25 9 -7 881.11 47
-9 -25 7 969.3 46.9
25 -7 -9 985.4 47.4
-25 -9 -7 906.71 48.2
-7 -9 25 950.3 48
25 7 9 1055.99 48
-9 -25 -9 1357.06 64.19
9 -25 9 1461.85 64.39
25 -9 -9 1176.58 63.89
25 9 -9 1308.37 63.99
-9 -9 25 1354.96 64.79
9 -9 -25 1445.36 64.89
-25 -9 9 1235.98 63.99
9 9 -25 1454.55 64.49
-11 -25 -1 270.17 16.8
1 -11 25 222.78 17.3
1 -25 -11 257.17 17.1
11 -1 -25 279.87 17.6
-1 -25 11 260.67 17.2
25 11 1 291.97 18.3
11 -25 1 255.07 17
-25 -11 1 300.27 18.3
25 1 -11 259.47 17
25 -11 -1 243.88 17.4
25 -1 -11 252.37 17.1
-1 -25 -11 283.07 17.7
11 1 -25 295.07 18.3
1 -25 11 308.97 17.7
-11 -25 1 277.87 16.8
25 11 -1 298.17 18
11 -25 -1 250.17 16.7
-25 -11 -1 235.18 17.4
-1 -11 25 269.27 18.2
25 -11 1 288.47 18.2
11 -25 3 10.2 7.5
3 -25 -11 6.9 6.8
-25 -11 3 8.9 8.9
11 -3 -25 17.2 8.4
-3 -11 -25 7.2 9.4
25 -11 -3 15.9 8.9
-3 -25 11 9.6 7.4
25 3 -11 15.4 7.2
3 -11 25 2.1 9.6
-11 -25 -3 8.2 7.4
25 11 3 6.5 8.5
-3 -11 -25 9.1 9.2
25 -3 -11 9.5 7.7
11 -25 -3 8 7.1
-25 -11 -3 9.9 9.3
3 -25 11 12.9 7.5
-3 -25 -11 5.6 7.8
25 -11 3 13.4 10
-3 -11 25 9.8 9.5
25 11 -3 9.9 7.8
-11 -25 3 9.1 7
11 3 -25 8.5 7.7
-5 -11 -25 11.2 9.6
-25 -11 5 9.2 8.7
25 5 -11 9.9 7.3
5 -25 -11 3 7.2
-5 -11 -25 7 9.4
-5 -25 11 9.7 7.8
-11 -25 -5 11.1 8
11 -25 5 4 7.9
11 -5 -25 7.5 8.4
25 11 5 10.8 9.2
25 -11 -5 13.2 9
-5 -11 25 4.8 9.3
-25 -11 -5 5.4 9.8
-5 -25 -11 10.9 8.2
11 5 -25 10.2 8.1
-25 -5 11 6.2 8.1
25 11 -5 9.4 8.1
5 -25 11 8.1 7.9
25 -5 -11 5.7 7.5
25 -11 5 6.9 9.8
-11 -7 25 125.19 12.9
-11 -25 -7 108.69 11.1
25 11 7 97.79 12
11 -7 -25 104.89 11.5
25 -11 -7 98.39 11.7
-25 -11 7 91.79 11.5
11 -25 7 105.99 11.4
25 7 -11 91.69 10.6
11 7 -25 102.69 11.2
7 -25 11 125.69 11.9
25 -7 -11 106.69 11
25 11 -7 117.79 11.2
-7 -11 25 106.99 12.3
-7 -25 -11 109.29 11.2
25 -11 7 93.29 13
-25 -11 -7 109.39 13.7
-11 -25 -9 294.37 19.4
9 11 -25 311.37 20.8
11 -9 -25 301.97 19.8
-11 -9 25 259.67 19.9
11 -25 9 333.67 21.6
11 9 -25 314.57 20.7
9 -11 -25 323.47 20.5
-9 -25 -11 321.87 19.8
9 -25 11 322.67 20
-9 -11 25 321.87 20.9
-11 -11 25 -0.5 12.8
11 -25 11 -3.2 10.3
11 -11 -25 0.9 11.2
11 11 -25 0.1 9.9
-11 -25 -11 2.1 10.9
-25 -13 1 99.39 11.9
-13 -25 -1 100.09 10.8
25 1 -13 108.69 10.6
25 13 1 138.49 12.7
25 -13 -1 122.19 13.2
-1 -25 13 126.59 11.6
1 -13 25 85.29 12.9
13 -25 1 102.19 10.6
13 -1 -25 117.49 11.6
1 -25 -13 99.99 10.8
25 13 -1 114.89 11.6
-1 -13 25 79.39 12.4
25 -13 1 131.39 13.4
1 -25 13 129.59 11.9
-1 -25 -13 93.99 11.2
13 1 -25 123.09 11.9
-25 -13 -1 105.79 12.4
25 -1 -13 100.49 10.5
13 -3 -25 46.9 9.9
-3 -25 13 35.8 9.1
-3 -13 -25 26.8 11.3
25 13 3 47.5 10.5
-13 -25 -3 51.79 9.3
-25 -13 3 36.3 10.1
3 -13 25 32.5 12
13 -25 3 41.8 9.3
-3 -13 -25 44.7 11.2
25 -13 -3 51.29 11
3 -25 13 66.89 10.2
-25 -13 -3 41.9 11.3
13 3 -25 41.4 9.2
-3 -13 25 42.1 11.1
25 -13 3 47.3 11.1
-3 -25 -13 45.6 9.7
25 13 -3 45.1 9.6
13 -25 5 25 9.9
25 -13 -5 26 10.3
13 -5 -25 30.4 9.5
-25 -13 5 31.7 11.7
-5 -13 -25 32.6 12.2
-5 -13 -25 23.2 12.1
25 13 5 23.4 10.8
-13 -25 -5 20 9
13 5 -25 33.6 9.4
-25 -13 -5 43.1 12.2
-5 -13 25 26.7 11
5 -25 13 31.9 9.7
25 -13 5 37.3 12.1
-5 -25 -13 31.3 9.9
25 13 -5 33.5 9.2
13 -25 7 90.09 11.8
-13 -7 25 63.89 12.3
13 -7 -25 92.09 11.7
-13 -25 -7 83.39 11.5
-25 -13 -7 70.19 14.3
7 -13 -25 3.5 11.2
13 7 -25 61.79 10.8
7 -25 13 85.89 11.3
-7 -13 25 76.29 12.8
-7 -25 -13 67.39 11.4
25 -13 7 54.99 13.5
13 -25 9 173.28 15.3
9 13 -25 145.99 14.3
9 -13 -25 142.79 15.2
9 -25 13 170.58 15.1
-9 -25 -13 163.08 14.9
13 9 -25 174.08 14.4
-9 -13 25 133.59 15.3
13 -25 11 19.1 12.8
11 -25 13 14.7 12.9
-25 -15 1 578.84 33.2
25 15 1 585.34 32.8
-1 -15 -25 591.64 33.8
25 -15 -1 603.74 33.5
15 -1 -25 597.64 32.1
1 -25 15 570.14 32.3
15 1 -25 587.54 32
25 -15 1 619.04 34.6
-25 -15 -1 564.84 33.7
25 15 -1 659.03 32.5
25 -15 -3 102.59 13.9
-3 -15 -25 90.99 14.5
25 15 3 121.49 13.5
-3 -15 -25 114.49 15.1
25 -15 3 116.39 14.9
-3 -15 25 95.29 13.9
15 3 -25 112.49 12.2
-25 -15 -3 106.99 14.2
3 -25 15 100.39 12.8
25 15 -3 112.19 12.6
25 15 5 110.29 14
-5 -15 25 102.39 14.1
5 -25 15 97.29 13.3
25 -15 5 107.69 15.6
-25 -15 -5 114.59 15.3
-7 -15 25 439.86 29.5
7 -25 15 475.65 28.4
7 -15 -25 479.65 29.2
-25 -15 -7 390.36 27.2
1 -17 -25 825.02 44.4
25 -17 1 819.22 45
25 17 3 273.57 20.2
25 -17 3 230.28 21.1
0 -26 0 1647.94 81.09
26 0 0 1847.32 81.79
-2 -26 0 479.55 25.1
2 -26 0 464.55 25
26 0 -2 515.05 26.3
26 0 2 519.35 26.2
26 -2 0 506.25 26.4
26 2 0 490.35 26.3
0 -26 -2 458.05 24.9
0 -26 2 469.55 25.1
26 2 2 77.99 9.3
-2 -26 2 87.59 8.2
26 2 -2 81.69 9.1
2 -26 2 66.59 8.1
26 -2 -2 83.29 9.6
26 -2 2 87.69 9.6
-2 -26 -2 78.79 8.2
2 -26 -2 64.69 8
-4 -26 0 118.19 10
26 0 -4 132.69 11.1
26 0 4 113.39 11
0 -26 -4 124.99 9.9
0 -26 4 128.59 10.2
26 -4 0 121.49 11.3
26 4 0 140.09 11.6
4 -26 0 124.19 10.1
26 -2 4 0.5 7.4
26 -4 -2 -1.8 7.5
26 2 -4 -2.4 6.9
26 4 2 -2.3 7.4
4 -26 2 -1.5 5.8
-4 -26 -2 -1.5 6
2 -26 -4 -2.9 5.5
-2 -26 4 -0.9 5.5
26 4 -2 3.4 7.4
26 -2 -4 5.5 7.3
2 -26 4 3.5 6.2
26 -4 2 1.1 7.4
-4 -26 2 -1.8 5.9
4 -26 -2 2.5 5.8
-2 -26 -4 -0.5 6
26 2 4 -0.6 7.3
4 -26 -4 105.09 9.6
4 -26 4 117.89 10.1
-4 -26 4 106.79 9.6
26 4 4 124.39 11.4
-4 -26 -4 109.69 9.9
26 4 -4 132.39 11.3
26 -4 4 118.09 11.3
26 -4 -4 112.49 11
6 -26 0 557.64 29.1
-6 -26 0 538.05 28.8
26 0 6 569.94 29.9
-26 -6 0 570.04 30.8
0 -26 -6 559.54 29
0 -26 6 551.14 29.1
26 -6 0 602.74 30.5
26 6 0 621.24 29.9
26 0 -6 577.04 29.7
-6 -26 -2 117.49 9.8
26 -2 6 104.69 11
-2 -26 6 111.39 9.9
26 -6 -2 120.19 11.3
26 6 2 114.69 11
-2 -6 -26 104.59 10.4
26 2 -6 104.39 10.4
2 -26 -6 117.49 10
6 -26 2 101.09 10
-26 -6 2 110.39 11.5
2 -26 6 130.29 10.4
26 2 6 120.49 11.2
26 -2 -6 124.39 11.1
6 -26 -2 105.19 9.6
26 6 -2 124.29 11.2
-2 -26 -6 132.39 9.9
-26 -6 -2 103.39 11.7
-6 -26 2 118.19 9.8
26 -6 2 124.89 11.9
-2 6 -26 94.19 9.8
-6 -26 -4 9 6.5
26 6 4 10.6 8.3
-4 -6 -26 4.8 5.9
-4 -6 -26 6.4 6.4
-4 -26 6 4.3 6.4
6 -26 4 4.1 6.6
26 4 -6 3.1 7.3
26 -4 6 5.1 8.4
-26 -6 4 6.4 8.3
26 -6 -4 8.4 8.2
4 -26 -6 8.1 6.4
26 -4 -6 9.3 7.9
4 -26 6 9.4 6.9
26 4 6 10.1 8.4
-4 -26 -6 3.5 6.5
26 -6 4 10.1 8.9
26 6 -4 6.5 7.7
6 -26 -4 4.7 6.4
-6 -26 4 4.9 6.5
26 -6 -6 36.4 9.1
6 -26 6 41.4 8.1
6 -26 -6 39 7.3
26 6 -6 37.5 8.6
26 6 6 36.7 9.4
-6 -26 6 33.1 7.6
26 -6 6 33.2 9.4
-6 -26 -6 37.7 7.7
-26 -6 6 49.8 9.4
26 8 0 1291.77 58.99
8 -26 0 1266.37 58.19
26 0 8 1162.18 58.59
26 -8 0 1278.67 59.29
0 8 -26 1296.47 58.79
26 0 -8 1208.48 58.49
0 -26 8 1149.48 58.19
0 -26 -8 1161.18 58.09
-26 -8 0 1237.38 59.29
-8 -26 0 1220.28 58.09
8 -26 2 516.35 28.7
26 2 -8 559.54 29.2
2 -26 -8 537.95 28.5
26 -2 8 550.04 29.9
-26 -8 2 560.44 30.3
-2 -26 8 534.45 28.6
26 8 2 554.14 29.8
-8 -26 -2 510.55 28.5
-2 -8 -26 564.44 29.9
26 -8 -2 625.64 30.7
2 -26 8 527.65 28.8
-8 -26 2 552.64 28.6
-26 -8 -2 601.14 30.9
8 -26 -2 547.45 28.5
-2 -26 -8 559.04 28.9
26 8 -2 618.04 29.9
26 -8 2 584.74 30.3
26 -2 -8 567.14 29.4
-4 -8 -26 143.09 11.7
8 -26 4 143.49 12
4 -26 -8 143.89 11.5
26 4 -8 133.69 11.9
-4 -8 -26 130.99 11.8
-4 -26 8 160.68 11.7
-8 -26 -4 164.48 12
26 -4 8 142.99 13
26 8 4 153.28 12.5
26 -8 -4 197.48 13.7
-26 -8 4 145.79 12.9
-26 -8 -4 148.99 13.6
8 -26 -4 137.39 11.2
26 8 -4 185.78 13
-8 -26 4 154.98 11.6
26 4 8 140.59 13
-4 -26 -8 140.69 11.8
26 -4 -8 154.98 12.6
26 -8 4 114.79 12.8
4 -26 8 186.68 12.6
26 6 -8 469.75 26.7
8 -26 6 495.65 26.7
-26 -8 6 485.45 27.3
26 8 6 513.25 27.8
26 -8 -6 528.25 27.7
-8 -26 -6 475.25 26.1
26 -6 -8 496.75 27.3
-26 -8 -6 466.55 29
-26 -6 8 482.85 27.6
6 -26 8 501.65 26.9
-6 -26 -8 451.75 26.2
-6 -8 26 466.35 28.1
26 8 -6 503.65 26.8
26 -8 6 534.05 28.3
-26 -8 8 1035.4 55.69
-8 -8 26 1162.58 56.89
26 -8 8 1155.48 56.59
26 -8 -8 1162.78 55.89
-8 -26 -8 1199.78 55.79
26 8 -8 1111.79 55.49
8 -26 8 1248.28 55.79
10 -26 0 581.54 31.4
0 -26 -10 596.94 31.7
10 0 -26 662.13 32.7
26 -10 0 650.23 33.5
26 10 0 641.74 32.8
-26 -10 0 633.64 33.4
-10 -26 0 609.54 31.3
0 -26 10 564.04 31.5
26 0 -10 569.94 31.7
26 0 10 663.73 32.4
10 -26 2 140.49 11.6
26 10 2 149.79 12.6
2 -26 -10 110.19 11.1
26 -10 -2 152.38 13.3
26 2 -10 132.39 11.6
10 -2 -26 139.89 12.3
-10 -26 -2 126.99 11.5
-2 -10 -26 118.29 12.9
-26 -10 2 144.39 13.3
-2 -26 10 137.49 11.7
-26 -10 -2 135.29 13.3
10 2 -26 162.48 12.6
26 -2 -10 134.79 12
26 2 10 110.19 12.1
26 -10 2 133.89 13.3
-2 -26 -10 132.69 11.6
26 10 -2 133.99 12.4
2 -26 10 148.89 11.8
-10 -26 -4 3.9 7.7
10 -4 -26 7.4 9.1
10 -26 4 6.8 8.1
26 10 4 1.4 9.4
26 -10 -4 6.6 9.6
26 4 -10 -0.2 7.7
-4 -10 -26 1.8 10.1
-26 -10 4 0.5 9.4
-4 -10 -26 3.1 10
-4 -10 26 4.6 10.5
-4 -26 -10 3.4 8.2
4 -26 10 2.9 8.1
26 -4 -10 3.1 8.2
26 -10 4 5.4 10.7
-26 -10 -4 7.5 10.4
26 10 -4 -2.6 8.6
10 4 -26 3.1 8.4
10 -6 -26 106.29 12
-26 -10 6 91.69 11.9
-10 -26 -6 93.09 11
26 -10 -6 120.09 12.3
26 10 6 96.99 12.7
10 -26 6 133.19 12
26 6 -10 88.29 10.6
26 -10 6 101.59 13.2
26 -6 -10 97.79 11.4
-6 -10 26 114.79 13.5
26 10 -6 123.29 11.7
-6 -26 -10 97.19 11.2
10 6 -26 101.49 11.5
-26 -10 -6 128.89 14.7
6 -26 10 125.29 12
-10 -8 26 399.76 27.3
10 -8 -26 451.05 26.7
10 -26 8 459.45 25.8
-8 -10 26 421.66 27.7
10 8 -26 492.25 26.5
-26 -10 -8 408.86 27.3
8 -26 10 476.25 26.2
-8 -26 -10 417.86 25.2
10 -10 -26 154.78 15.4
10 10 -26 153.48 14.7
10 -26 10 168.28 15.3
-10 -10 26 157.18 16.3
0 -12 26 81.09 13.7
-26 -12 0 115.59 13.2
0 -26 12 127.89 11.6
26 12 0 113.99 12.2
12 0 -26 117.79 12.1
0 -12 -26 78.49 13.1
26 -12 0 134.49 13.6
12 -2 -26 2.9 9
26 12 2 5.8 10
-26 -12 2 9.9 10.3
-2 -12 -26 0.1 11.2
26 -12 -2 2.7 10.6
-2 -12 -26 6 11.8
2 -26 12 -0.2 8.7
12 2 -26 4 9.2
-26 -12 -2 0.2 11.3
26 -12 2 1.1 11.7
-2 -12 26 -0.2 11.5
26 12 -2 4.3 9.3
12 -4 -26 175.18 14.7
-26 -12 4 192.68 15.7
26 -12 -4 183.08 15.5
26 12 4 195.18 15.7
12 4 -26 160.88 14.1
-26 -12 -4 192.58 16.6
26 12 -4 188.98 14.8
4 -26 12 204.38 14.9
26 -12 4 160.28 15.8
12 -6 -26 15.1 10.2
26 12 6 8.5 11.4
12 6 -26 14.2 10
-6 -12 26 11.1 11.6
6 -26 12 11.7 9.8
-26 -12 -6 13.7 13.7
26 -12 6 11 13.1
12 -8 -26 60.39 12.2
8 -12 -26 2.3 11.8
-8 -12 26 65.59 14.1
12 8 -26 64.69 11.6
8 -26 12 55.99 11.7
26 14 0 298.77 18.5
26 -14 0 236.68 18.8
-26 -14 0 244.28 18.9
14 0 -26 236.28 17.8
26 14 2 40.4 11.7
26 -14 -2 40.3 12.8
-26 -14 -2 36.3 12.8
14 2 -26 32.7 10.9
26 -14 2 39.1 12.8
26 14 -2 44.6 11.4
26 14 4 9.6 11.9
26 -14 4 10.1 13.4
-26 -14 -4 9.2 13.9
-4 -14 26 12.1 13
-6 -14 26 21.8 13.6
-26 -14 -6 39.6 15.5
-1 -27 -1 276.27 16.3
-1 -27 1 261.37 16.2
-1 1 -27 282.57 17.9
1 -27 -1 252.37 16
1 -27 1 268.97 16.2
27 -1 -1 279.07 18.2
27 -1 1 250.87 17.1
27 1 -1 285.77 17.9
27 1 1 257.37 17.1
-3 -27 -1 -1 6
27 1 -3 5.4 7.8
-1 -3 -27 7.1 8.6
27 3 1 7.2 8.2
1 3 -27 2.9 8.4
27 -3 -1 -0.4 8.1
3 -27 1 -1.9 6.2
1 -27 -3 -1.7 6.2
27 -1 3 -3.8 8.5
-1 -27 3 -1.2 6.5
27 1 3 0.7 8.6
27 3 -1 4.7 8.2
-1 3 -27 4.4 7.9
-3 -27 1 -2 6.1
27 -1 -3 4.7 8
1 -27 3 2.6 6.3
3 -27 -1 1.2 6.5
27 -3 1 0.2 8.5
-1 -27 -3 -1.3 6.2
27 -3 3 81.89 10.8
-3 -27 3 78.49 8.8
-3 -3 -27 86.99 7.6
3 -27 -3 88.19 8.9
3 -27 3 83.89 9
27 3 -3 85.59 10.4
27 3 3 91.89 10.9
-3 -27 -3 73.89 8.8
27 -3 -3 83.09 10.4
-1 -5 -27 1.1 8.8
5 -27 1 5.1 6.6
27 1 -5 3.6 7.8
1 -27 -5 8 6.8
1 5 -27 8.2 8.9
-1 -27 5 2.6 6.9
27 -1 5 9.3 8.8
27 5 1 5.8 8.5
27 -5 -1 9.2 8.8
-5 -27 -1 4.9 6.6
27 1 5 2.2 9
27 -5 1 6.3 9.5
-1 -27 -5 2.9 6.8
-5 -27 1 5.6 6.6
5 -27 -1 7.5 6.7
27 5 -1 0.7 8.3
-1 5 -27 4.7 8.5
1 -5 -27 7.9 8.8
1 -27 5 10.5 7.1
27 -1 -5 10.8 8.3
-3 -5 -27 185.78 13.3
3 -27 -5 215.38 13.9
-3 -27 5 220.18 14
27 3 -5 228.08 15.1
-5 -27 -3 214.28 14.1
5 -27 3 141.79 13.3
27 -5 -3 217.68 15.4
-3 -5 -27 215.78 13.8
27 5 3 227.78 15.5
-5 -27 3 183.28 13.6
27 -3 -5 231.48 15.4
-3 -27 -5 214.18 14
27 3 5 211.08 15.2
27 -5 3 223.48 15.4
27 5 -3 255.67 15.7
5 -27 -3 220.58 14
3 -27 5 179.18 13.9
-27 -5 5 435.66 25.8
5 -27 5 427.86 24.6
27 -5 5 455.25 26.2
27 5 -5 448.86 25.2
27 5 5 444.36 26.2
27 -5 -5 488.25 25.6
-5 -27 -5 426.06 24.1
27 7 1 326.87 21.1
27 -7 -1 353.46 21
7 -27 1 289.97 19
-1 -27 7 308.97 18.9
27 -1 7 331.87 21.6
-27 -7 1 316.67 20.5
27 1 -7 327.37 20.3
27 1 7 348.27 22
27 -7 1 333.47 21.5
1 -27 7 292.97 19
1 -7 -27 281.17 19.5
-1 -27 -7 291.77 18.8
27 -1 -7 311.87 19.9
-27 -7 -1 333.87 21
27 7 -1 341.07 20.7
-3 -7 -27 24.7 9.8
27 -7 -3 22.8 9.7
-27 -7 3 40.8 10.2
27 3 -7 34 8.9
7 -27 3 29.8 8
-3 -7 -27 27.3 10
27 7 3 28.9 9.7
27 -3 7 22.7 10.4
27 3 7 27.4 10.2
3 -27 7 27.9 8.2
-27 -7 -3 26.4 10.9
27 -7 3 26.2 10.2
27 7 -3 28.9 9.2
27 -3 -7 38.2 9.4
-3 -27 -7 29.7 7.7
27 7 5 -0.4 10.1
7 -27 5 -1 7.8
27 -7 -5 2.4 9.4
-27 -7 5 -2.6 9.7
27 5 -7 4.1 8.5
27 -5 7 7.8 10.5
27 5 7 3.8 10.3
27 -5 -7 -1.8 8.8
5 -27 7 0.2 8.4
-27 -5 7 0.9 9.5
27 -7 5 -1.4 10.2
27 7 -5 0.1 8.8
27 7 7 393.46 25.8
27 -7 -7 373.16 23.7
27 7 -7 399.06 23.4
-1 -9 -27 284.67 19.4
27 -9 -1 277.57 18.9
27 1 -9 243.08 17.6
-27 -9 1 292.47 19.4
27 9 1 280.77 18.7
27 -9 1 328.27 19.8
27 9 -1 300.97 19.4
27 -1 -9 273.67 17.9
1 -9 -27 283.07 19.2
-27 -9 -1 274.07 19.3
27 9 3 40.3 10.5
27 -9 -3 38.8 11
27 3 -9 30.6 8.9
-27 -9 3 38.7 10.9
27 9 -3 30.9 10.1
27 -3 -9 32.9 9.6
-27 -9 -3 33.4 11.7
27 -9 3 33.8 11.2
27 9 5 -2.3 10.8
-27 -9 5 2.2 10.7
27 -9 -5 -1.9 10.3
27 -9 5 1.6 11.6
-27 -9 -5 -3.7 12.3
27 9 -5 1.8 9.5
-7 -9 27 249.97 19.1
-9 -9 27 280.37 21.3
1 11 -27 15.7 11.9
27 11 1 15.5 10.7
-27 -11 1 12.5 11.6
11 -1 -27 18.6 10.3
27 -11 -1 17.5 11.6
-27 -11 -1 22.2 12
27 -11 1 21 11.8
27 11 -1 21.9 10.6
1 -11 -27 20.3 12
11 1 -27 29.9 10.8
27 11 3 118.79 13.8
11 -3 -27 89.29 12.2
27 -11 -3 97.49 13.3
-27 -11 -3 96.69 15.1
-3 -11 27 93.39 14.9
27 11 -3 109.99 12.7
11 3 -27 83.09 11.8
27 -11 3 121.79 15.2
27 11 5 187.28 17.1
11 -5 -27 236.88 17
-5 -11 27 200.78 18.1
11 5 -27 208.88 16.1
27 -11 5 166.88 18.6
11 -7 -27 -6.3 11.6
-7 -11 27 0.2 13.1
11 7 -27 7.2 11.4
27 13 1 2.7 11.4
27 -13 -1 14.3 13.6
27 -13 1 -2.6 13.3
27 13 -1 0.8 11.3
-27 -13 -1 3.5 13.2
27 13 3 190.38 16.9
27 -13 3 150.48 17.3
-27 -13 -3 166.88 18.1
0 0 -28 148.29 14
28 0 0 185.58 14.6
0 -2 -28 1.8 10.2
0 2 -28 4.5 10
28 0 -2 6.1 8.8
28 0 2 2.4 9.7
28 2 0 6.2 9.7
2 0 -28 1.7 9.9
28 -2 0 1.5 9.1
-2 0 -28 6.4 7.7
28 -2 -2 16.2 9.4
-2 2 -28 21.4 8
2 -2 -28 13.7 10.1
28 -2 2 10.5 9.7
2 2 -28 16.3 10.3
28 2 -2 18.4 9.8
28 2 2 14.3 9.5
-2 -2 -28 17.9 9
28 4 0 188.78 14.4
0 4 -28 122.29 13.7
28 0 -4 170.28 13.6
0 -4 -28 160.88 14.3
28 0 4 138.49 13.7
28 -4 0 147.09 13.6
28 2 -4 313.87 19.5
28 -2 4 280.47 18.5
2 4 -28 250.67 18.7
28 4 2 306.17 18.9
28 -4 2 269.27 18.4
28 4 -2 277.57 18.3
28 -2 -4 317.47 19.7
2 -4 -28 219.88 18
28 2 4 285.97 18.5
28 4 -4 908.51 45.4
28 -4 -4 925.21 45.8
28 -4 4 878.31 45.9
28 4 4 912.81 45.9
28 6 0 21.4 10.4
28 -6 0 23.9 10.7
0 -6 -28 8.6 11.6
0 6 -28 16.8 11.2
28 0 -6 9.3 9.1
28 0 6 17 11.3
28 6 2 109.89 12.8
28 -6 -2 95.79 12.4
28 2 -6 107.49 11.8
28 -2 6 81.79 13
2 -6 -28 100.59 13.1
28 -2 -6 103.39 11.8
28 6 -2 88.19 11.8
28 2 6 94.39 13.1
28 -6 2 117.19 13.3
28 4 -6 587.94 31.7
-28 -6 4 511.75 31.7
28 6 4 587.84 32.4
28 -4 6 550.94 33
28 -6 -4 605.84 32.4
28 6 -4 585.14 31.6
28 -4 -6 577.34 31.4
28 -6 -6 333.77 21.3
28 8 0 166.58 14.8
28 -8 0 188.88 15.9
-28 -8 0 173.78 16.9
-28 -8 2 41.1 12.3
2 8 -28 60.19 13
28 -8 -2 67.29 12.8
28 8 2 79.09 12.5
-28 -8 -2 56.29 13.5
28 -8 2 62.59 12.9
28 8 -2 68.89 11.9
2 -8 -28 45.7 12.7
28 -8 -4 24.8 11.6
28 8 4 18.7 11.6
28 8 -4 15 10.6
28 -8 4 31 13.5
-28 -10 0 30.6 13.1
28 -10 0 38.4 13.3
28 10 0 36.8 11.8
28 10 2 7 11.5
28 -10 -2 7.5 12.6
28 -10 2 10 13.4
28 10 -2 1.6 11.1
-28 -10 -2 -1.4 13
28 10 4 185.88 17.1
-28 -10 -4 148.29 17.8
28 -12 0 26.6 15.5
29 -1 -1 20.7 10.6
29 -1 1 29.2 11.2
29 1 -1 25.7 11.1
29 1 1 31 11.4
3 -1 -29 147.59 16
29 -1 3 179.68 16
29 1 -3 187.38 15.4
29 -3 -1 196.08 15.7
29 3 1 203.38 16.2
29 3 -1 199.98 16.2
29 -1 -3 173.98 15.1
29 1 3 158.78 15.5
29 -3 1 164.18 15.7
29 -3 3 661.03 37.9
29 3 3 689.43 37.9
3 -3 -29 681.53 38.3
29 -3 -3 720.03 37.6
29 3 -3 729.63 36.9
29 1 -5 172.48 15.4
29 5 1 206.18 16.6
29 -5 -1 201.18 16.4
29 -1 -5 224.68 16.4
29 5 -1 168.58 15.5
29 -5 1 186.38 16.3
29 -5 -3 862.41 42.8
29 3 -5 753.02 43
29 5 3 839.22 43.1
29 -5 3 793.12 43
29 5 -3 834.42 42.6
29 -3 -5 827.42 42.4
29 -7 -1 2 12.3
29 7 1 3.6 11.6
29 7 -1 3.6 12.1
29 -7 1 4.9 13.7
29 -7 -3 263.97 19.6
29 7 3 227.88 19
29 9 1 72.39 14.6
29 -9 -1 63.29 15.2
29 -9 1 64.59 15.8
-29 -9 -1 59.79 16.6
30 0 0 278.47 20.8
30 0 -2 -3.2 12.3
30 0 2 1 13
30 -2 0 9.4 12.6
30 2 0 0.3 12.6
30 -2 -2 90.29 14
30 2 -2 121.19 15.2
30 -4 0 135.59 16.5
30 4 0 139.89 15.5
30 -4 -2 481.65 31
30 4 -2 491.95 30.5
