@<TRIPOS>MOLECULE
4512072
 10726 10584  2347
SMALL
NO_CHARGES
****
Generated from the CSD

@<TRIPOS>ATOM
     1 Zr1      0.0000   0.0000   2.4844   Zr        1 RES1   0.0000
     2 O2A      1.9502   0.0000   3.5317   O.co2     1 RES1   0.0000
     3 C2       4.2072   0.0000   4.2072   C.2       1 RES1   0.0000
     4 C3       5.5418   0.0000   3.8452   C.2       1 RES1   0.0000
     5 H3       5.7862   0.0000   2.9273   H         1 RES1   0.0000
     6 O1A     -1.0477  -1.0477   1.0477   O.3       1 RES1   0.0000
     7 C1       3.1491   0.0000   3.1491   C.2       1 RES1   0.0000
     8 O2A     -1.9502   0.0000   3.5317   O.co2     1 RES1   0.0000
     9 C2      -4.2072   0.0000   4.2072   C.2       1 RES1   0.0000
    10 C3      -5.5418   0.0000   3.8452   C.2       1 RES1   0.0000
    11 H3      -5.7862   0.0000   2.9273   H         1 RES1   0.0000
    12 O1A      1.0477   1.0477   1.0477   O.3       1 RES1   0.0000
    13 C1      -3.1491   0.0000   3.1491   C.2       1 RES1   0.0000
    14 Zr1      2.4844   0.0000   0.0000   Zr        1 RES1   0.0000
    15 O2A      3.5317   1.9502   0.0000   O.co2     1 RES1   0.0000
    16 C2       4.2072   4.2072   0.0000   C.2       1 RES1   0.0000
    17 C3       3.8452   5.5418   0.0000   C.2       1 RES1   0.0000
    18 H3       2.9273   5.7862   0.0000   H         1 RES1   0.0000
    19 O1A      1.0477  -1.0477  -1.0477   O.3       1 RES1   0.0000
    20 C1       3.1491   3.1491   0.0000   C.2       1 RES1   0.0000
    21 O2A      3.5317  -1.9502   0.0000   O.co2     1 RES1   0.0000
    22 C2       4.2072  -4.2072   0.0000   C.2       1 RES1   0.0000
    23 C3       3.8452  -5.5418   0.0000   C.2       1 RES1   0.0000
    24 H3       2.9273  -5.7862   0.0000   H         1 RES1   0.0000
    25 C1       3.1491  -3.1491   0.0000   C.2       1 RES1   0.0000
    26 Zr1     -2.4844   0.0000   0.0000   Zr        1 RES1   0.0000
    27 O2A     -3.5317  -1.9502   0.0000   O.co2     1 RES1   0.0000
    28 C2      -4.2072  -4.2072   0.0000   C.2       1 RES1   0.0000
    29 C3      -3.8452  -5.5418   0.0000   C.2       1 RES1   0.0000
    30 H3      -2.9273  -5.7862   0.0000   H         1 RES1   0.0000
    31 O1A     -1.0477   1.0477  -1.0477   O.3       1 RES1   0.0000
    32 C1      -3.1491  -3.1491   0.0000   C.2       1 RES1   0.0000
    33 O2A     -3.5317   1.9502   0.0000   O.co2     1 RES1   0.0000
    34 C2      -4.2072   4.2072   0.0000   C.2       1 RES1   0.0000
    35 C3      -3.8452   5.5418   0.0000   C.2       1 RES1   0.0000
    36 H3      -2.9273   5.7862   0.0000   H         1 RES1   0.0000
    37 C1      -3.1491   3.1491   0.0000   C.2       1 RES1   0.0000
    38 Zr1      0.0000   2.4844   0.0000   Zr        1 RES1   0.0000
    39 O2A      0.0000   3.5317   1.9502   O.co2     1 RES1   0.0000
    40 C2       0.0000   4.2072   4.2072   C.2       1 RES1   0.0000
    41 C3       0.0000   3.8452   5.5418   C.2       1 RES1   0.0000
    42 H3       0.0000   2.9273   5.7862   H         1 RES1   0.0000
    43 C1       0.0000   3.1491   3.1491   C.2       1 RES1   0.0000
    44 O2A      0.0000   3.5317  -1.9502   O.co2     1 RES1   0.0000
    45 C2       0.0000   4.2072  -4.2072   C.2       1 RES1   0.0000
    46 C3      -0.0000   3.8452  -5.5418   C.2       1 RES1   0.0000
    47 H3      -0.0000   2.9273  -5.7862   H         1 RES1   0.0000
    48 C1       0.0000   3.1491  -3.1491   C.2       1 RES1   0.0000
    49 Zr1     -0.0000  -2.4844   0.0000   Zr        1 RES1   0.0000
    50 O2A     -0.0000  -3.5317  -1.9502   O.co2     1 RES1   0.0000
    51 C2      -0.0000  -4.2072  -4.2072   C.2       1 RES1   0.0000
    52 C3      -0.0000  -3.8452  -5.5418   C.2       1 RES1   0.0000
    53 H3      -0.0000  -2.9273  -5.7862   H         1 RES1   0.0000
    54 C1      -0.0000  -3.1491  -3.1491   C.2       1 RES1   0.0000
    55 O2A     -0.0000  -3.5317   1.9502   O.co2     1 RES1   0.0000
    56 C2       0.0000  -4.2072   4.2072   C.2       1 RES1   0.0000
    57 C3       0.0000  -3.8452   5.5418   C.2       1 RES1   0.0000
    58 H3       0.0000  -2.9273   5.7862   H         1 RES1   0.0000
    59 C1       0.0000  -3.1491   3.1491   C.2       1 RES1   0.0000
    60 Zr1     -0.0000  -0.0000  -2.4844   Zr        1 RES1   0.0000
    61 O2A     -0.0000   1.9502  -3.5317   O.co2     1 RES1   0.0000
    62 C3       0.0000   5.5418  -3.8452   C.2       1 RES1   0.0000
    63 H3       0.0000   5.7862  -2.9273   H         1 RES1   0.0000
    64 O1A     -1.0477  -1.0477  -1.0477   O.3       1 RES1   0.0000
    65 O2A     -0.0000  -1.9502  -3.5317   O.co2     1 RES1   0.0000
    66 C3      -0.0000  -5.5418  -3.8452   C.2       1 RES1   0.0000
    67 H3      -0.0000  -5.7862  -2.9273   H         1 RES1   0.0000
    68 O1A      1.0477   1.0477  -1.0477   O.3       1 RES1   0.0000
    69 O2A      0.0000  -1.9502   3.5317   O.co2     1 RES1   0.0000
    70 C3      -0.0000  -5.5418   3.8452   C.2       1 RES1   0.0000
    71 H3      -0.0000  -5.7862   2.9273   H         1 RES1   0.0000
    72 O1A     -1.0477   1.0477   1.0477   O.3       1 RES1   0.0000
    73 O2A      0.0000   1.9502   3.5317   O.co2     1 RES1   0.0000
    74 C3       0.0000   5.5418   3.8452   C.2       1 RES1   0.0000
    75 H3       0.0000   5.7862   2.9273   H         1 RES1   0.0000
    76 O1A      1.0477  -1.0477   1.0477   O.3       1 RES1   0.0000
    77 O2A      1.9502   3.5317   0.0000   O.co2     1 RES1   0.0000
    78 C3       5.5418   3.8452   0.0000   C.2       1 RES1   0.0000
    79 H3       5.7862   2.9273   0.0000   H         1 RES1   0.0000
    80 O2A     -1.9502   3.5317   0.0000   O.co2     1 RES1   0.0000
    81 C3      -5.5418   3.8452   0.0000   C.2       1 RES1   0.0000
    82 H3      -5.7862   2.9273   0.0000   H         1 RES1   0.0000
    83 O2A     -1.9502  -3.5317   0.0000   O.co2     1 RES1   0.0000
    84 C3      -5.5418  -3.8452   0.0000   C.2       1 RES1   0.0000
    85 H3      -5.7862  -2.9273   0.0000   H         1 RES1   0.0000
    86 O2A      1.9502  -3.5317   0.0000   O.co2     1 RES1   0.0000
    87 C3       5.5418  -3.8452   0.0000   C.2       1 RES1   0.0000
    88 H3       5.7862  -2.9273   0.0000   H         1 RES1   0.0000
    89 O2A      3.5317  -0.0000  -1.9502   O.co2     1 RES1   0.0000
    90 C2       4.2072  -0.0000  -4.2072   C.2       1 RES1   0.0000
    91 C3       3.8452  -0.0000  -5.5418   C.2       1 RES1   0.0000
    92 H3       2.9273  -0.0000  -5.7862   H         1 RES1   0.0000
    93 C1       3.1491  -0.0000  -3.1491   C.2       1 RES1   0.0000
    94 O2A      3.5317   0.0000   1.9502   O.co2     1 RES1   0.0000
    95 C3       3.8452   0.0000   5.5418   C.2       1 RES1   0.0000
    96 H3       2.9273   0.0000   5.7862   H         1 RES1   0.0000
    97 O2A     -3.5317   0.0000   1.9502   O.co2     1 RES1   0.0000
    98 C3      -3.8452   0.0000   5.5418   C.2       1 RES1   0.0000
    99 H3      -2.9273   0.0000   5.7862   H         1 RES1   0.0000
   100 O2A     -3.5317  -0.0000  -1.9502   O.co2     1 RES1   0.0000
   101 C2      -4.2072  -0.0000  -4.2072   C.2       1 RES1   0.0000
   102 C3      -3.8452  -0.0000  -5.5418   C.2       1 RES1   0.0000
   103 H3      -2.9273  -0.0000  -5.7862   H         1 RES1   0.0000
   104 C1      -3.1491  -0.0000  -3.1491   C.2       1 RES1   0.0000
   105 O2A     -1.9502  -0.0000  -3.5317   O.co2     1 RES1   0.0000
   106 C3      -5.5418  -0.0000  -3.8452   C.2       1 RES1   0.0000
   107 H3      -5.7862  -0.0000  -2.9273   H         1 RES1   0.0000
   108 O2A      1.9502  -0.0000  -3.5317   O.co2     1 RES1   0.0000
   109 C3       5.5418  -0.0000  -3.8452   C.2       1 RES1   0.0000
   110 H3       5.7862  -0.0000  -2.9273   H         1 RES1   0.0000
   111 C3      -0.0000  -6.5281  -4.8314   C.2       1 RES1   0.0000
   112 C3      -0.0000  -6.5281   4.8314   C.2       1 RES1   0.0000
   113 C3       0.0000   6.5281   4.8314   C.2       1 RES1   0.0000
   114 C3       0.0000   6.5281  -4.8314   C.2       1 RES1   0.0000
   115 C3       0.0000  -4.8314   6.5281   C.2       1 RES1   0.0000
   116 C3       0.0000   4.8314   6.5281   C.2       1 RES1   0.0000
   117 C3      -0.0000   4.8314  -6.5281   C.2       1 RES1   0.0000
   118 C3      -0.0000  -4.8314  -6.5281   C.2       1 RES1   0.0000
   119 C3      -4.8314  -0.0000  -6.5281   C.2       1 RES1   0.0000
   120 C3       4.8314  -0.0000  -6.5281   C.2       1 RES1   0.0000
   121 C3       4.8314   0.0000   6.5281   C.2       1 RES1   0.0000
   122 C3      -4.8314   0.0000   6.5281   C.2       1 RES1   0.0000
   123 C3      -6.5281   0.0000   4.8314   C.2       1 RES1   0.0000
   124 C3      -6.5281  -0.0000  -4.8314   C.2       1 RES1   0.0000
   125 C3       6.5281  -0.0000  -4.8314   C.2       1 RES1   0.0000
   126 C3       6.5281   0.0000   4.8314   C.2       1 RES1   0.0000
   127 C3      -6.5281  -4.8314   0.0000   C.2       1 RES1   0.0000
   128 C3      -6.5281   4.8314   0.0000   C.2       1 RES1   0.0000
   129 C3       6.5281   4.8314   0.0000   C.2       1 RES1   0.0000
   130 C3       6.5281  -4.8314   0.0000   C.2       1 RES1   0.0000
   131 C3      -4.8314  -6.5281   0.0000   C.2       1 RES1   0.0000
   132 C3       4.8314  -6.5281   0.0000   C.2       1 RES1   0.0000
   133 C3       4.8314   6.5281   0.0000   C.2       1 RES1   0.0000
   134 C3      -4.8314   6.5281   0.0000   C.2       1 RES1   0.0000
   135 Zr1      0.0000   0.0000  23.2309   Zr        2 RES2   0.0000
   136 O2A      1.9502   0.0000  24.2782   O.co2     2 RES2   0.0000
   137 C2       4.2072   0.0000  24.9537   C.2       2 RES2   0.0000
   138 C3       5.5418   0.0000  24.5917   C.2       2 RES2   0.0000
   139 H3       5.7862   0.0000  23.6738   H         2 RES2   0.0000
   140 O1A     -1.0477  -1.0477  21.7942   O.3       2 RES2   0.0000
   141 C1       3.1491   0.0000  23.8956   C.2       2 RES2   0.0000
   142 O2A     -1.9502   0.0000  24.2782   O.co2     2 RES2   0.0000
   143 C2      -4.2072   0.0000  24.9537   C.2       2 RES2   0.0000
   144 C3      -5.5418   0.0000  24.5917   C.2       2 RES2   0.0000
   145 H3      -5.7862   0.0000  23.6738   H         2 RES2   0.0000
   146 O1A      1.0477   1.0477  21.7942   O.3       2 RES2   0.0000
   147 C1      -3.1491   0.0000  23.8956   C.2       2 RES2   0.0000
   148 Zr1      2.4844   0.0000  20.7465   Zr        2 RES2   0.0000
   149 O2A      3.5317   1.9502  20.7465   O.co2     2 RES2   0.0000
   150 C2       4.2072   4.2072  20.7465   C.2       2 RES2   0.0000
   151 C3       3.8452   5.5418  20.7465   C.2       2 RES2   0.0000
   152 H3       2.9273   5.7862  20.7465   H         2 RES2   0.0000
   153 O1A      1.0477  -1.0477  19.6988   O.3       2 RES2   0.0000
   154 C1       3.1491   3.1491  20.7465   C.2       2 RES2   0.0000
   155 O2A      3.5317  -1.9502  20.7465   O.co2     2 RES2   0.0000
   156 C2       4.2072  -4.2072  20.7465   C.2       2 RES2   0.0000
   157 C3       3.8452  -5.5418  20.7465   C.2       2 RES2   0.0000
   158 H3       2.9273  -5.7862  20.7465   H         2 RES2   0.0000
   159 C1       3.1491  -3.1491  20.7465   C.2       2 RES2   0.0000
   160 Zr1     -2.4844   0.0000  20.7465   Zr        2 RES2   0.0000
   161 O2A     -3.5317  -1.9502  20.7465   O.co2     2 RES2   0.0000
   162 C2      -4.2072  -4.2072  20.7465   C.2       2 RES2   0.0000
   163 C3      -3.8452  -5.5418  20.7465   C.2       2 RES2   0.0000
   164 H3      -2.9273  -5.7862  20.7465   H         2 RES2   0.0000
   165 O1A     -1.0477   1.0477  19.6988   O.3       2 RES2   0.0000
   166 C1      -3.1491  -3.1491  20.7465   C.2       2 RES2   0.0000
   167 O2A     -3.5317   1.9502  20.7465   O.co2     2 RES2   0.0000
   168 C2      -4.2072   4.2072  20.7465   C.2       2 RES2   0.0000
   169 C3      -3.8452   5.5418  20.7465   C.2       2 RES2   0.0000
   170 H3      -2.9273   5.7862  20.7465   H         2 RES2   0.0000
   171 C1      -3.1491   3.1491  20.7465   C.2       2 RES2   0.0000
   172 Zr1      0.0000   2.4844  20.7465   Zr        2 RES2   0.0000
   173 O2A      0.0000   3.5317  22.6967   O.co2     2 RES2   0.0000
   174 C2       0.0000   4.2072  24.9537   C.2       2 RES2   0.0000
   175 C3       0.0000   3.8452  26.2883   C.2       2 RES2   0.0000
   176 H3       0.0000   2.9273  26.5327   H         2 RES2   0.0000
   177 C1       0.0000   3.1491  23.8956   C.2       2 RES2   0.0000
   178 O2A      0.0000   3.5317  18.7963   O.co2     2 RES2   0.0000
   179 C2       0.0000   4.2072  16.5393   C.2       2 RES2   0.0000
   180 C3       0.0000   3.8452  15.2047   C.2       2 RES2   0.0000
   181 H3       0.0000   2.9273  14.9603   H         2 RES2   0.0000
   182 C1       0.0000   3.1491  17.5974   C.2       2 RES2   0.0000
   183 Zr1      0.0000  -2.4844  20.7465   Zr        2 RES2   0.0000
   184 O2A      0.0000  -3.5317  18.7963   O.co2     2 RES2   0.0000
   185 C2       0.0000  -4.2072  16.5393   C.2       2 RES2   0.0000
   186 C3       0.0000  -3.8452  15.2047   C.2       2 RES2   0.0000
   187 H3       0.0000  -2.9273  14.9603   H         2 RES2   0.0000
   188 C1       0.0000  -3.1491  17.5974   C.2       2 RES2   0.0000
   189 O2A      0.0000  -3.5317  22.6967   O.co2     2 RES2   0.0000
   190 C2       0.0000  -4.2072  24.9537   C.2       2 RES2   0.0000
   191 C3       0.0000  -3.8452  26.2883   C.2       2 RES2   0.0000
   192 H3       0.0000  -2.9273  26.5327   H         2 RES2   0.0000
   193 C1       0.0000  -3.1491  23.8956   C.2       2 RES2   0.0000
   194 Zr1      0.0000   0.0000  18.2621   Zr        2 RES2   0.0000
   195 O2A      0.0000   1.9502  17.2148   O.co2     2 RES2   0.0000
   196 C3       0.0000   5.5418  16.9013   C.2       2 RES2   0.0000
   197 H3       0.0000   5.7862  17.8192   H         2 RES2   0.0000
   198 O1A     -1.0477  -1.0477  19.6988   O.3       2 RES2   0.0000
   199 O2A      0.0000  -1.9502  17.2148   O.co2     2 RES2   0.0000
   200 C3       0.0000  -5.5418  16.9013   C.2       2 RES2   0.0000
   201 H3       0.0000  -5.7862  17.8192   H         2 RES2   0.0000
   202 O1A      1.0477   1.0477  19.6988   O.3       2 RES2   0.0000
   203 O2A      0.0000  -1.9502  24.2782   O.co2     2 RES2   0.0000
   204 C3       0.0000  -5.5418  24.5917   C.2       2 RES2   0.0000
   205 H3       0.0000  -5.7862  23.6738   H         2 RES2   0.0000
   206 O1A     -1.0477   1.0477  21.7942   O.3       2 RES2   0.0000
   207 O2A      0.0000   1.9502  24.2782   O.co2     2 RES2   0.0000
   208 C3       0.0000   5.5418  24.5917   C.2       2 RES2   0.0000
   209 H3       0.0000   5.7862  23.6738   H         2 RES2   0.0000
   210 O1A      1.0477  -1.0477  21.7942   O.3       2 RES2   0.0000
   211 O2A      1.9502   3.5317  20.7465   O.co2     2 RES2   0.0000
   212 C3       5.5418   3.8452  20.7465   C.2       2 RES2   0.0000
   213 H3       5.7862   2.9273  20.7465   H         2 RES2   0.0000
   214 O2A     -1.9502   3.5317  20.7465   O.co2     2 RES2   0.0000
   215 C3      -5.5418   3.8452  20.7465   C.2       2 RES2   0.0000
   216 H3      -5.7862   2.9273  20.7465   H         2 RES2   0.0000
   217 O2A     -1.9502  -3.5317  20.7465   O.co2     2 RES2   0.0000
   218 C3      -5.5418  -3.8452  20.7465   C.2       2 RES2   0.0000
   219 H3      -5.7862  -2.9273  20.7465   H         2 RES2   0.0000
   220 O2A      1.9502  -3.5317  20.7465   O.co2     2 RES2   0.0000
   221 C3       5.5418  -3.8452  20.7465   C.2       2 RES2   0.0000
   222 H3       5.7862  -2.9273  20.7465   H         2 RES2   0.0000
   223 O2A      3.5317   0.0000  18.7963   O.co2     2 RES2   0.0000
   224 C2       4.2072   0.0000  16.5393   C.2       2 RES2   0.0000
   225 C3       3.8452   0.0000  15.2047   C.2       2 RES2   0.0000
   226 H3       2.9273   0.0000  14.9603   H         2 RES2   0.0000
   227 C1       3.1491   0.0000  17.5974   C.2       2 RES2   0.0000
   228 O2A      3.5317   0.0000  22.6967   O.co2     2 RES2   0.0000
   229 C3       3.8452   0.0000  26.2883   C.2       2 RES2   0.0000
   230 H3       2.9273   0.0000  26.5327   H         2 RES2   0.0000
   231 O2A     -3.5317   0.0000  22.6967   O.co2     2 RES2   0.0000
   232 C3      -3.8452   0.0000  26.2883   C.2       2 RES2   0.0000
   233 H3      -2.9273   0.0000  26.5327   H         2 RES2   0.0000
   234 O2A     -3.5317   0.0000  18.7963   O.co2     2 RES2   0.0000
   235 C2      -4.2072   0.0000  16.5393   C.2       2 RES2   0.0000
   236 C3      -3.8452   0.0000  15.2047   C.2       2 RES2   0.0000
   237 H3      -2.9273   0.0000  14.9603   H         2 RES2   0.0000
   238 C1      -3.1491   0.0000  17.5974   C.2       2 RES2   0.0000
   239 O2A     -1.9502   0.0000  17.2148   O.co2     2 RES2   0.0000
   240 C3      -5.5418   0.0000  16.9013   C.2       2 RES2   0.0000
   241 H3      -5.7862   0.0000  17.8192   H         2 RES2   0.0000
   242 O2A      1.9502   0.0000  17.2148   O.co2     2 RES2   0.0000
   243 C3       5.5418   0.0000  16.9013   C.2       2 RES2   0.0000
   244 H3       5.7862   0.0000  17.8192   H         2 RES2   0.0000
   245 C3       0.0000  -6.5281  15.9151   C.2       2 RES2   0.0000
   246 C3       0.0000  -6.5281  25.5779   C.2       2 RES2   0.0000
   247 C3       0.0000   6.5281  25.5779   C.2       2 RES2   0.0000
   248 C3       0.0000   6.5281  15.9151   C.2       2 RES2   0.0000
   249 C3       0.0000  -4.8314  27.2746   C.2       2 RES2   0.0000
   250 C3       0.0000   4.8314  27.2746   C.2       2 RES2   0.0000
   251 C3       0.0000   4.8314  14.2184   C.2       2 RES2   0.0000
   252 C3       0.0000  -4.8314  14.2184   C.2       2 RES2   0.0000
   253 C3      -4.8314   0.0000  14.2184   C.2       2 RES2   0.0000
   254 C3       4.8314   0.0000  14.2184   C.2       2 RES2   0.0000
   255 C3       4.8314   0.0000  27.2746   C.2       2 RES2   0.0000
   256 C3      -4.8314   0.0000  27.2746   C.2       2 RES2   0.0000
   257 C3      -6.5281   0.0000  25.5779   C.2       2 RES2   0.0000
   258 C3      -6.5281   0.0000  15.9151   C.2       2 RES2   0.0000
   259 C3       6.5281   0.0000  15.9151   C.2       2 RES2   0.0000
   260 C3       6.5281   0.0000  25.5779   C.2       2 RES2   0.0000
   261 C3      -6.5281  -4.8314  20.7465   C.2       2 RES2   0.0000
   262 C3      -6.5281   4.8314  20.7465   C.2       2 RES2   0.0000
   263 C3       6.5281   4.8314  20.7465   C.2       2 RES2   0.0000
   264 C3       6.5281  -4.8314  20.7465   C.2       2 RES2   0.0000
   265 C3      -4.8314  -6.5281  20.7465   C.2       2 RES2   0.0000
   266 C3       4.8314  -6.5281  20.7465   C.2       2 RES2   0.0000
   267 C3       4.8314   6.5281  20.7465   C.2       2 RES2   0.0000
   268 C3      -4.8314   6.5281  20.7465   C.2       2 RES2   0.0000
   269 Zr1      0.0000   0.0000  43.9774   Zr        3 RES3   0.0000
   270 O2A      1.9502   0.0000  45.0247   O.co2     3 RES3   0.0000
   271 C2       4.2072   0.0000  45.7002   C.2       3 RES3   0.0000
   272 C3       5.5418   0.0000  45.3382   C.2       3 RES3   0.0000
   273 H3       5.7862   0.0000  44.4203   H         3 RES3   0.0000
   274 O1A     -1.0477  -1.0477  42.5407   O.3       3 RES3   0.0000
   275 C1       3.1491   0.0000  44.6421   C.2       3 RES3   0.0000
   276 O2A     -1.9502   0.0000  45.0247   O.co2     3 RES3   0.0000
   277 C2      -4.2072   0.0000  45.7002   C.2       3 RES3   0.0000
   278 C3      -5.5418   0.0000  45.3382   C.2       3 RES3   0.0000
   279 H3      -5.7862   0.0000  44.4203   H         3 RES3   0.0000
   280 O1A      1.0477   1.0477  42.5407   O.3       3 RES3   0.0000
   281 C1      -3.1491   0.0000  44.6421   C.2       3 RES3   0.0000
   282 Zr1      2.4844   0.0000  41.4930   Zr        3 RES3   0.0000
   283 O2A      3.5317   1.9502  41.4930   O.co2     3 RES3   0.0000
   284 C2       4.2072   4.2072  41.4930   C.2       3 RES3   0.0000
   285 C3       3.8452   5.5418  41.4930   C.2       3 RES3   0.0000
   286 H3       2.9273   5.7862  41.4930   H         3 RES3   0.0000
   287 O1A      1.0477  -1.0477  40.4453   O.3       3 RES3   0.0000
   288 C1       3.1491   3.1491  41.4930   C.2       3 RES3   0.0000
   289 O2A      3.5317  -1.9502  41.4930   O.co2     3 RES3   0.0000
   290 C2       4.2072  -4.2072  41.4930   C.2       3 RES3   0.0000
   291 C3       3.8452  -5.5418  41.4930   C.2       3 RES3   0.0000
   292 H3       2.9273  -5.7862  41.4930   H         3 RES3   0.0000
   293 C1       3.1491  -3.1491  41.4930   C.2       3 RES3   0.0000
   294 Zr1     -2.4844   0.0000  41.4930   Zr        3 RES3   0.0000
   295 O2A     -3.5317  -1.9502  41.4930   O.co2     3 RES3   0.0000
   296 C2      -4.2072  -4.2072  41.4930   C.2       3 RES3   0.0000
   297 C3      -3.8452  -5.5418  41.4930   C.2       3 RES3   0.0000
   298 H3      -2.9273  -5.7862  41.4930   H         3 RES3   0.0000
   299 O1A     -1.0477   1.0477  40.4453   O.3       3 RES3   0.0000
   300 C1      -3.1491  -3.1491  41.4930   C.2       3 RES3   0.0000
   301 O2A     -3.5317   1.9502  41.4930   O.co2     3 RES3   0.0000
   302 C2      -4.2072   4.2072  41.4930   C.2       3 RES3   0.0000
   303 C3      -3.8452   5.5418  41.4930   C.2       3 RES3   0.0000
   304 H3      -2.9273   5.7862  41.4930   H         3 RES3   0.0000
   305 C1      -3.1491   3.1491  41.4930   C.2       3 RES3   0.0000
   306 Zr1      0.0000   2.4844  41.4930   Zr        3 RES3   0.0000
   307 O2A      0.0000   3.5317  43.4432   O.co2     3 RES3   0.0000
   308 C2       0.0000   4.2072  45.7002   C.2       3 RES3   0.0000
   309 C3       0.0000   3.8452  47.0348   C.2       3 RES3   0.0000
   310 H3       0.0000   2.9273  47.2792   H         3 RES3   0.0000
   311 C1       0.0000   3.1491  44.6421   C.2       3 RES3   0.0000
   312 O2A      0.0000   3.5317  39.5428   O.co2     3 RES3   0.0000
   313 C2       0.0000   4.2072  37.2858   C.2       3 RES3   0.0000
   314 C3       0.0000   3.8452  35.9512   C.2       3 RES3   0.0000
   315 H3       0.0000   2.9273  35.7068   H         3 RES3   0.0000
   316 C1       0.0000   3.1491  38.3439   C.2       3 RES3   0.0000
   317 Zr1      0.0000  -2.4844  41.4930   Zr        3 RES3   0.0000
   318 O2A      0.0000  -3.5317  39.5428   O.co2     3 RES3   0.0000
   319 C2       0.0000  -4.2072  37.2858   C.2       3 RES3   0.0000
   320 C3       0.0000  -3.8452  35.9512   C.2       3 RES3   0.0000
   321 H3       0.0000  -2.9273  35.7068   H         3 RES3   0.0000
   322 C1       0.0000  -3.1491  38.3439   C.2       3 RES3   0.0000
   323 O2A      0.0000  -3.5317  43.4432   O.co2     3 RES3   0.0000
   324 C2       0.0000  -4.2072  45.7002   C.2       3 RES3   0.0000
   325 C3       0.0000  -3.8452  47.0348   C.2       3 RES3   0.0000
   326 H3       0.0000  -2.9273  47.2792   H         3 RES3   0.0000
   327 C1       0.0000  -3.1491  44.6421   C.2       3 RES3   0.0000
   328 Zr1      0.0000   0.0000  39.0086   Zr        3 RES3   0.0000
   329 O2A      0.0000   1.9502  37.9613   O.co2     3 RES3   0.0000
   330 C3       0.0000   5.5418  37.6478   C.2       3 RES3   0.0000
   331 H3       0.0000   5.7862  38.5657   H         3 RES3   0.0000
   332 O1A     -1.0477  -1.0477  40.4453   O.3       3 RES3   0.0000
   333 O2A      0.0000  -1.9502  37.9613   O.co2     3 RES3   0.0000
   334 C3       0.0000  -5.5418  37.6478   C.2       3 RES3   0.0000
   335 H3       0.0000  -5.7862  38.5657   H         3 RES3   0.0000
   336 O1A      1.0477   1.0477  40.4453   O.3       3 RES3   0.0000
   337 O2A      0.0000  -1.9502  45.0247   O.co2     3 RES3   0.0000
   338 C3       0.0000  -5.5418  45.3382   C.2       3 RES3   0.0000
   339 H3       0.0000  -5.7862  44.4203   H         3 RES3   0.0000
   340 O1A     -1.0477   1.0477  42.5407   O.3       3 RES3   0.0000
   341 O2A      0.0000   1.9502  45.0247   O.co2     3 RES3   0.0000
   342 C3       0.0000   5.5418  45.3382   C.2       3 RES3   0.0000
   343 H3       0.0000   5.7862  44.4203   H         3 RES3   0.0000
   344 O1A      1.0477  -1.0477  42.5407   O.3       3 RES3   0.0000
   345 O2A      1.9502   3.5317  41.4930   O.co2     3 RES3   0.0000
   346 C3       5.5418   3.8452  41.4930   C.2       3 RES3   0.0000
   347 H3       5.7862   2.9273  41.4930   H         3 RES3   0.0000
   348 O2A     -1.9502   3.5317  41.4930   O.co2     3 RES3   0.0000
   349 C3      -5.5418   3.8452  41.4930   C.2       3 RES3   0.0000
   350 H3      -5.7862   2.9273  41.4930   H         3 RES3   0.0000
   351 O2A     -1.9502  -3.5317  41.4930   O.co2     3 RES3   0.0000
   352 C3      -5.5418  -3.8452  41.4930   C.2       3 RES3   0.0000
   353 H3      -5.7862  -2.9273  41.4930   H         3 RES3   0.0000
   354 O2A      1.9502  -3.5317  41.4930   O.co2     3 RES3   0.0000
   355 C3       5.5418  -3.8452  41.4930   C.2       3 RES3   0.0000
   356 H3       5.7862  -2.9273  41.4930   H         3 RES3   0.0000
   357 O2A      3.5317   0.0000  39.5428   O.co2     3 RES3   0.0000
   358 C2       4.2072   0.0000  37.2858   C.2       3 RES3   0.0000
   359 C3       3.8452   0.0000  35.9512   C.2       3 RES3   0.0000
   360 H3       2.9273   0.0000  35.7068   H         3 RES3   0.0000
   361 C1       3.1491   0.0000  38.3439   C.2       3 RES3   0.0000
   362 O2A      3.5317   0.0000  43.4432   O.co2     3 RES3   0.0000
   363 C3       3.8452   0.0000  47.0348   C.2       3 RES3   0.0000
   364 H3       2.9273   0.0000  47.2792   H         3 RES3   0.0000
   365 O2A     -3.5317   0.0000  43.4432   O.co2     3 RES3   0.0000
   366 C3      -3.8452   0.0000  47.0348   C.2       3 RES3   0.0000
   367 H3      -2.9273   0.0000  47.2792   H         3 RES3   0.0000
   368 O2A     -3.5317   0.0000  39.5428   O.co2     3 RES3   0.0000
   369 C2      -4.2072   0.0000  37.2858   C.2       3 RES3   0.0000
   370 C3      -3.8452   0.0000  35.9512   C.2       3 RES3   0.0000
   371 H3      -2.9273   0.0000  35.7068   H         3 RES3   0.0000
   372 C1      -3.1491   0.0000  38.3439   C.2       3 RES3   0.0000
   373 O2A     -1.9502   0.0000  37.9613   O.co2     3 RES3   0.0000
   374 C3      -5.5418   0.0000  37.6478   C.2       3 RES3   0.0000
   375 H3      -5.7862   0.0000  38.5657   H         3 RES3   0.0000
   376 O2A      1.9502   0.0000  37.9613   O.co2     3 RES3   0.0000
   377 C3       5.5418   0.0000  37.6478   C.2       3 RES3   0.0000
   378 H3       5.7862   0.0000  38.5657   H         3 RES3   0.0000
   379 C3       0.0000  -6.5281  36.6616   C.2       3 RES3   0.0000
   380 C3       0.0000  -6.5281  46.3244   C.2       3 RES3   0.0000
   381 C3       0.0000   6.5281  46.3244   C.2       3 RES3   0.0000
   382 C3       0.0000   6.5281  36.6616   C.2       3 RES3   0.0000
   383 C3       0.0000  -4.8314  48.0211   C.2       3 RES3   0.0000
   384 C3       0.0000   4.8314  48.0211   C.2       3 RES3   0.0000
   385 C3       0.0000   4.8314  34.9649   C.2       3 RES3   0.0000
   386 C3       0.0000  -4.8314  34.9649   C.2       3 RES3   0.0000
   387 C3      -4.8314   0.0000  34.9649   C.2       3 RES3   0.0000
   388 C3       4.8314   0.0000  34.9649   C.2       3 RES3   0.0000
   389 C3       4.8314   0.0000  48.0211   C.2       3 RES3   0.0000
   390 C3      -4.8314   0.0000  48.0211   C.2       3 RES3   0.0000
   391 C3      -6.5281   0.0000  46.3244   C.2       3 RES3   0.0000
   392 C3      -6.5281   0.0000  36.6616   C.2       3 RES3   0.0000
   393 C3       6.5281   0.0000  36.6616   C.2       3 RES3   0.0000
   394 C3       6.5281   0.0000  46.3244   C.2       3 RES3   0.0000
   395 C3      -6.5281  -4.8314  41.4930   C.2       3 RES3   0.0000
   396 C3      -6.5281   4.8314  41.4930   C.2       3 RES3   0.0000
   397 C3       6.5281   4.8314  41.4930   C.2       3 RES3   0.0000
   398 C3       6.5281  -4.8314  41.4930   C.2       3 RES3   0.0000
   399 C3      -4.8314  -6.5281  41.4930   C.2       3 RES3   0.0000
   400 C3       4.8314  -6.5281  41.4930   C.2       3 RES3   0.0000
   401 C3       4.8314   6.5281  41.4930   C.2       3 RES3   0.0000
   402 C3      -4.8314   6.5281  41.4930   C.2       3 RES3   0.0000
   403 Zr1      0.0000  20.7465   2.4844   Zr        4 RES4   0.0000
   404 O2A      1.9502  20.7465   3.5317   O.co2     4 RES4   0.0000
   405 C2       4.2072  20.7465   4.2072   C.2       4 RES4   0.0000
   406 C3       5.5418  20.7465   3.8452   C.2       4 RES4   0.0000
   407 H3       5.7862  20.7465   2.9273   H         4 RES4   0.0000
   408 O1A     -1.0477  19.6988   1.0477   O.3       4 RES4   0.0000
   409 C1       3.1491  20.7465   3.1491   C.2       4 RES4   0.0000
   410 O2A     -1.9502  20.7465   3.5317   O.co2     4 RES4   0.0000
   411 C2      -4.2072  20.7465   4.2072   C.2       4 RES4   0.0000
   412 C3      -5.5418  20.7465   3.8452   C.2       4 RES4   0.0000
   413 H3      -5.7862  20.7465   2.9273   H         4 RES4   0.0000
   414 O1A      1.0477  21.7942   1.0477   O.3       4 RES4   0.0000
   415 C1      -3.1491  20.7465   3.1491   C.2       4 RES4   0.0000
   416 Zr1      2.4844  20.7465   0.0000   Zr        4 RES4   0.0000
   417 O2A      3.5317  22.6967   0.0000   O.co2     4 RES4   0.0000
   418 C2       4.2072  24.9537   0.0000   C.2       4 RES4   0.0000
   419 C3       3.8452  26.2883   0.0000   C.2       4 RES4   0.0000
   420 H3       2.9273  26.5327   0.0000   H         4 RES4   0.0000
   421 O1A      1.0477  19.6988  -1.0477   O.3       4 RES4   0.0000
   422 C1       3.1491  23.8956   0.0000   C.2       4 RES4   0.0000
   423 O2A      3.5317  18.7963   0.0000   O.co2     4 RES4   0.0000
   424 C2       4.2072  16.5393   0.0000   C.2       4 RES4   0.0000
   425 C3       3.8452  15.2047   0.0000   C.2       4 RES4   0.0000
   426 H3       2.9273  14.9603   0.0000   H         4 RES4   0.0000
   427 C1       3.1491  17.5974   0.0000   C.2       4 RES4   0.0000
   428 Zr1     -2.4844  20.7465   0.0000   Zr        4 RES4   0.0000
   429 O2A     -3.5317  18.7963   0.0000   O.co2     4 RES4   0.0000
   430 C2      -4.2072  16.5393   0.0000   C.2       4 RES4   0.0000
   431 C3      -3.8452  15.2047   0.0000   C.2       4 RES4   0.0000
   432 H3      -2.9273  14.9603   0.0000   H         4 RES4   0.0000
   433 O1A     -1.0477  21.7942  -1.0477   O.3       4 RES4   0.0000
   434 C1      -3.1491  17.5974   0.0000   C.2       4 RES4   0.0000
   435 O2A     -3.5317  22.6967   0.0000   O.co2     4 RES4   0.0000
   436 C2      -4.2072  24.9537   0.0000   C.2       4 RES4   0.0000
   437 C3      -3.8452  26.2883   0.0000   C.2       4 RES4   0.0000
   438 H3      -2.9273  26.5327   0.0000   H         4 RES4   0.0000
   439 C1      -3.1491  23.8956   0.0000   C.2       4 RES4   0.0000
   440 Zr1      0.0000  23.2309   0.0000   Zr        4 RES4   0.0000
   441 O2A      0.0000  24.2782   1.9502   O.co2     4 RES4   0.0000
   442 C2       0.0000  24.9537   4.2072   C.2       4 RES4   0.0000
   443 C3       0.0000  24.5917   5.5418   C.2       4 RES4   0.0000
   444 H3       0.0000  23.6738   5.7862   H         4 RES4   0.0000
   445 C1       0.0000  23.8956   3.1491   C.2       4 RES4   0.0000
   446 O2A      0.0000  24.2782  -1.9502   O.co2     4 RES4   0.0000
   447 C2       0.0000  24.9537  -4.2072   C.2       4 RES4   0.0000
   448 C3       0.0000  24.5917  -5.5418   C.2       4 RES4   0.0000
   449 H3       0.0000  23.6738  -5.7862   H         4 RES4   0.0000
   450 C1       0.0000  23.8956  -3.1491   C.2       4 RES4   0.0000
   451 Zr1      0.0000  18.2621   0.0000   Zr        4 RES4   0.0000
   452 O2A      0.0000  17.2148  -1.9502   O.co2     4 RES4   0.0000
   453 C2       0.0000  16.5393  -4.2072   C.2       4 RES4   0.0000
   454 C3       0.0000  16.9013  -5.5418   C.2       4 RES4   0.0000
   455 H3       0.0000  17.8192  -5.7862   H         4 RES4   0.0000
   456 C1       0.0000  17.5974  -3.1491   C.2       4 RES4   0.0000
   457 O2A      0.0000  17.2148   1.9502   O.co2     4 RES4   0.0000
   458 C2       0.0000  16.5393   4.2072   C.2       4 RES4   0.0000
   459 C3       0.0000  16.9013   5.5418   C.2       4 RES4   0.0000
   460 H3       0.0000  17.8192   5.7862   H         4 RES4   0.0000
   461 C1       0.0000  17.5974   3.1491   C.2       4 RES4   0.0000
   462 Zr1      0.0000  20.7465  -2.4844   Zr        4 RES4   0.0000
   463 O2A      0.0000  22.6967  -3.5317   O.co2     4 RES4   0.0000
   464 C3       0.0000  26.2883  -3.8452   C.2       4 RES4   0.0000
   465 H3       0.0000  26.5327  -2.9273   H         4 RES4   0.0000
   466 O1A     -1.0477  19.6988  -1.0477   O.3       4 RES4   0.0000
   467 O2A      0.0000  18.7963  -3.5317   O.co2     4 RES4   0.0000
   468 C3       0.0000  15.2047  -3.8452   C.2       4 RES4   0.0000
   469 H3       0.0000  14.9603  -2.9273   H         4 RES4   0.0000
   470 O1A      1.0477  21.7942  -1.0477   O.3       4 RES4   0.0000
   471 O2A      0.0000  18.7963   3.5317   O.co2     4 RES4   0.0000
   472 C3       0.0000  15.2047   3.8452   C.2       4 RES4   0.0000
   473 H3       0.0000  14.9603   2.9273   H         4 RES4   0.0000
   474 O1A     -1.0477  21.7942   1.0477   O.3       4 RES4   0.0000
   475 O2A      0.0000  22.6967   3.5317   O.co2     4 RES4   0.0000
   476 C3       0.0000  26.2883   3.8452   C.2       4 RES4   0.0000
   477 H3       0.0000  26.5327   2.9273   H         4 RES4   0.0000
   478 O1A      1.0477  19.6988   1.0477   O.3       4 RES4   0.0000
   479 O2A      1.9502  24.2782   0.0000   O.co2     4 RES4   0.0000
   480 C3       5.5418  24.5917   0.0000   C.2       4 RES4   0.0000
   481 H3       5.7862  23.6738   0.0000   H         4 RES4   0.0000
   482 O2A     -1.9502  24.2782   0.0000   O.co2     4 RES4   0.0000
   483 C3      -5.5418  24.5917   0.0000   C.2       4 RES4   0.0000
   484 H3      -5.7862  23.6738   0.0000   H         4 RES4   0.0000
   485 O2A     -1.9502  17.2148   0.0000   O.co2     4 RES4   0.0000
   486 C3      -5.5418  16.9013   0.0000   C.2       4 RES4   0.0000
   487 H3      -5.7862  17.8192   0.0000   H         4 RES4   0.0000
   488 O2A      1.9502  17.2148   0.0000   O.co2     4 RES4   0.0000
   489 C3       5.5418  16.9013   0.0000   C.2       4 RES4   0.0000
   490 H3       5.7862  17.8192   0.0000   H         4 RES4   0.0000
   491 O2A      3.5317  20.7465  -1.9502   O.co2     4 RES4   0.0000
   492 C2       4.2072  20.7465  -4.2072   C.2       4 RES4   0.0000
   493 C3       3.8452  20.7465  -5.5418   C.2       4 RES4   0.0000
   494 H3       2.9273  20.7465  -5.7862   H         4 RES4   0.0000
   495 C1       3.1491  20.7465  -3.1491   C.2       4 RES4   0.0000
   496 O2A      3.5317  20.7465   1.9502   O.co2     4 RES4   0.0000
   497 C3       3.8452  20.7465   5.5418   C.2       4 RES4   0.0000
   498 H3       2.9273  20.7465   5.7862   H         4 RES4   0.0000
   499 O2A     -3.5317  20.7465   1.9502   O.co2     4 RES4   0.0000
   500 C3      -3.8452  20.7465   5.5418   C.2       4 RES4   0.0000
   501 H3      -2.9273  20.7465   5.7862   H         4 RES4   0.0000
   502 O2A     -3.5317  20.7465  -1.9502   O.co2     4 RES4   0.0000
   503 C2      -4.2072  20.7465  -4.2072   C.2       4 RES4   0.0000
   504 C3      -3.8452  20.7465  -5.5418   C.2       4 RES4   0.0000
   505 H3      -2.9273  20.7465  -5.7862   H         4 RES4   0.0000
   506 C1      -3.1491  20.7465  -3.1491   C.2       4 RES4   0.0000
   507 O2A     -1.9502  20.7465  -3.5317   O.co2     4 RES4   0.0000
   508 C3      -5.5418  20.7465  -3.8452   C.2       4 RES4   0.0000
   509 H3      -5.7862  20.7465  -2.9273   H         4 RES4   0.0000
   510 O2A      1.9502  20.7465  -3.5317   O.co2     4 RES4   0.0000
   511 C3       5.5418  20.7465  -3.8452   C.2       4 RES4   0.0000
   512 H3       5.7862  20.7465  -2.9273   H         4 RES4   0.0000
   513 C3       0.0000  14.2184  -4.8314   C.2       4 RES4   0.0000
   514 C3       0.0000  14.2184   4.8314   C.2       4 RES4   0.0000
   515 C3       0.0000  27.2746   4.8314   C.2       4 RES4   0.0000
   516 C3       0.0000  27.2746  -4.8314   C.2       4 RES4   0.0000
   517 C3       0.0000  15.9151   6.5281   C.2       4 RES4   0.0000
   518 C3       0.0000  25.5779   6.5281   C.2       4 RES4   0.0000
   519 C3       0.0000  25.5779  -6.5281   C.2       4 RES4   0.0000
   520 C3       0.0000  15.9151  -6.5281   C.2       4 RES4   0.0000
   521 C3      -4.8314  20.7465  -6.5281   C.2       4 RES4   0.0000
   522 C3       4.8314  20.7465  -6.5281   C.2       4 RES4   0.0000
   523 C3       4.8314  20.7465   6.5281   C.2       4 RES4   0.0000
   524 C3      -4.8314  20.7465   6.5281   C.2       4 RES4   0.0000
   525 C3      -6.5281  20.7465   4.8314   C.2       4 RES4   0.0000
   526 C3      -6.5281  20.7465  -4.8314   C.2       4 RES4   0.0000
   527 C3       6.5281  20.7465  -4.8314   C.2       4 RES4   0.0000
   528 C3       6.5281  20.7465   4.8314   C.2       4 RES4   0.0000
   529 C3      -6.5281  15.9151   0.0000   C.2       4 RES4   0.0000
   530 C3      -6.5281  25.5779   0.0000   C.2       4 RES4   0.0000
   531 C3       6.5281  25.5779   0.0000   C.2       4 RES4   0.0000
   532 C3       6.5281  15.9151   0.0000   C.2       4 RES4   0.0000
   533 C3      -4.8314  14.2184   0.0000   C.2       4 RES4   0.0000
   534 C3       4.8314  14.2184   0.0000   C.2       4 RES4   0.0000
   535 C3       4.8314  27.2746   0.0000   C.2       4 RES4   0.0000
   536 C3      -4.8314  27.2746   0.0000   C.2       4 RES4   0.0000
   537 Zr1      0.0000  20.7465  23.2309   Zr        5 RES5   0.0000
   538 O2A      1.9502  20.7465  24.2782   O.co2     5 RES5   0.0000
   539 C2       4.2072  20.7465  24.9537   C.2       5 RES5   0.0000
   540 C3       5.5418  20.7465  24.5917   C.2       5 RES5   0.0000
   541 H3       5.7862  20.7465  23.6738   H         5 RES5   0.0000
   542 O1A     -1.0477  19.6988  21.7942   O.3       5 RES5   0.0000
   543 C1       3.1491  20.7465  23.8956   C.2       5 RES5   0.0000
   544 O2A     -1.9502  20.7465  24.2782   O.co2     5 RES5   0.0000
   545 C2      -4.2072  20.7465  24.9537   C.2       5 RES5   0.0000
   546 C3      -5.5418  20.7465  24.5917   C.2       5 RES5   0.0000
   547 H3      -5.7862  20.7465  23.6738   H         5 RES5   0.0000
   548 O1A      1.0477  21.7942  21.7942   O.3       5 RES5   0.0000
   549 C1      -3.1491  20.7465  23.8956   C.2       5 RES5   0.0000
   550 Zr1      2.4844  20.7465  20.7465   Zr        5 RES5   0.0000
   551 O2A      3.5317  22.6967  20.7465   O.co2     5 RES5   0.0000
   552 C2       4.2072  24.9537  20.7465   C.2       5 RES5   0.0000
   553 C3       3.8452  26.2883  20.7465   C.2       5 RES5   0.0000
   554 H3       2.9273  26.5327  20.7465   H         5 RES5   0.0000
   555 O1A      1.0477  19.6988  19.6988   O.3       5 RES5   0.0000
   556 C1       3.1491  23.8956  20.7465   C.2       5 RES5   0.0000
   557 O2A      3.5317  18.7963  20.7465   O.co2     5 RES5   0.0000
   558 C2       4.2072  16.5393  20.7465   C.2       5 RES5   0.0000
   559 C3       3.8452  15.2047  20.7465   C.2       5 RES5   0.0000
   560 H3       2.9273  14.9603  20.7465   H         5 RES5   0.0000
   561 C1       3.1491  17.5974  20.7465   C.2       5 RES5   0.0000
   562 Zr1     -2.4844  20.7465  20.7465   Zr        5 RES5   0.0000
   563 O2A     -3.5317  18.7963  20.7465   O.co2     5 RES5   0.0000
   564 C2      -4.2072  16.5393  20.7465   C.2       5 RES5   0.0000
   565 C3      -3.8452  15.2047  20.7465   C.2       5 RES5   0.0000
   566 H3      -2.9273  14.9603  20.7465   H         5 RES5   0.0000
   567 O1A     -1.0477  21.7942  19.6988   O.3       5 RES5   0.0000
   568 C1      -3.1491  17.5974  20.7465   C.2       5 RES5   0.0000
   569 O2A     -3.5317  22.6967  20.7465   O.co2     5 RES5   0.0000
   570 C2      -4.2072  24.9537  20.7465   C.2       5 RES5   0.0000
   571 C3      -3.8452  26.2883  20.7465   C.2       5 RES5   0.0000
   572 H3      -2.9273  26.5327  20.7465   H         5 RES5   0.0000
   573 C1      -3.1491  23.8956  20.7465   C.2       5 RES5   0.0000
   574 Zr1      0.0000  23.2309  20.7465   Zr        5 RES5   0.0000
   575 O2A      0.0000  24.2782  22.6967   O.co2     5 RES5   0.0000
   576 C2       0.0000  24.9537  24.9537   C.2       5 RES5   0.0000
   577 C3       0.0000  24.5917  26.2883   C.2       5 RES5   0.0000
   578 H3       0.0000  23.6738  26.5327   H         5 RES5   0.0000
   579 C1       0.0000  23.8956  23.8956   C.2       5 RES5   0.0000
   580 O2A      0.0000  24.2782  18.7963   O.co2     5 RES5   0.0000
   581 C2       0.0000  24.9537  16.5393   C.2       5 RES5   0.0000
   582 C3       0.0000  24.5917  15.2047   C.2       5 RES5   0.0000
   583 H3       0.0000  23.6738  14.9603   H         5 RES5   0.0000
   584 C1       0.0000  23.8956  17.5974   C.2       5 RES5   0.0000
   585 Zr1      0.0000  18.2621  20.7465   Zr        5 RES5   0.0000
   586 O2A      0.0000  17.2148  18.7963   O.co2     5 RES5   0.0000
   587 C2       0.0000  16.5393  16.5393   C.2       5 RES5   0.0000
   588 C3       0.0000  16.9013  15.2047   C.2       5 RES5   0.0000
   589 H3       0.0000  17.8192  14.9603   H         5 RES5   0.0000
   590 C1       0.0000  17.5974  17.5974   C.2       5 RES5   0.0000
   591 O2A      0.0000  17.2148  22.6967   O.co2     5 RES5   0.0000
   592 C2       0.0000  16.5393  24.9537   C.2       5 RES5   0.0000
   593 C3       0.0000  16.9013  26.2883   C.2       5 RES5   0.0000
   594 H3       0.0000  17.8192  26.5327   H         5 RES5   0.0000
   595 C1       0.0000  17.5974  23.8956   C.2       5 RES5   0.0000
   596 Zr1      0.0000  20.7465  18.2621   Zr        5 RES5   0.0000
   597 O2A      0.0000  22.6967  17.2148   O.co2     5 RES5   0.0000
   598 C3       0.0000  26.2883  16.9013   C.2       5 RES5   0.0000
   599 H3       0.0000  26.5327  17.8192   H         5 RES5   0.0000
   600 O1A     -1.0477  19.6988  19.6988   O.3       5 RES5   0.0000
   601 O2A      0.0000  18.7963  17.2148   O.co2     5 RES5   0.0000
   602 C3       0.0000  15.2047  16.9013   C.2       5 RES5   0.0000
   603 H3       0.0000  14.9603  17.8192   H         5 RES5   0.0000
   604 O1A      1.0477  21.7942  19.6988   O.3       5 RES5   0.0000
   605 O2A      0.0000  18.7963  24.2782   O.co2     5 RES5   0.0000
   606 C3       0.0000  15.2047  24.5917   C.2       5 RES5   0.0000
   607 H3       0.0000  14.9603  23.6738   H         5 RES5   0.0000
   608 O1A     -1.0477  21.7942  21.7942   O.3       5 RES5   0.0000
   609 O2A      0.0000  22.6967  24.2782   O.co2     5 RES5   0.0000
   610 C3       0.0000  26.2883  24.5917   C.2       5 RES5   0.0000
   611 H3       0.0000  26.5327  23.6738   H         5 RES5   0.0000
   612 O1A      1.0477  19.6988  21.7942   O.3       5 RES5   0.0000
   613 O2A      1.9502  24.2782  20.7465   O.co2     5 RES5   0.0000
   614 C3       5.5418  24.5917  20.7465   C.2       5 RES5   0.0000
   615 H3       5.7862  23.6738  20.7465   H         5 RES5   0.0000
   616 O2A     -1.9502  24.2782  20.7465   O.co2     5 RES5   0.0000
   617 C3      -5.5418  24.5917  20.7465   C.2       5 RES5   0.0000
   618 H3      -5.7862  23.6738  20.7465   H         5 RES5   0.0000
   619 O2A     -1.9502  17.2148  20.7465   O.co2     5 RES5   0.0000
   620 C3      -5.5418  16.9013  20.7465   C.2       5 RES5   0.0000
   621 H3      -5.7862  17.8192  20.7465   H         5 RES5   0.0000
   622 O2A      1.9502  17.2148  20.7465   O.co2     5 RES5   0.0000
   623 C3       5.5418  16.9013  20.7465   C.2       5 RES5   0.0000
   624 H3       5.7862  17.8192  20.7465   H         5 RES5   0.0000
   625 O2A      3.5317  20.7465  18.7963   O.co2     5 RES5   0.0000
   626 C2       4.2072  20.7465  16.5393   C.2       5 RES5   0.0000
   627 C3       3.8452  20.7465  15.2047   C.2       5 RES5   0.0000
   628 H3       2.9273  20.7465  14.9603   H         5 RES5   0.0000
   629 C1       3.1491  20.7465  17.5974   C.2       5 RES5   0.0000
   630 O2A      3.5317  20.7465  22.6967   O.co2     5 RES5   0.0000
   631 C3       3.8452  20.7465  26.2883   C.2       5 RES5   0.0000
   632 H3       2.9273  20.7465  26.5327   H         5 RES5   0.0000
   633 O2A     -3.5317  20.7465  22.6967   O.co2     5 RES5   0.0000
   634 C3      -3.8452  20.7465  26.2883   C.2       5 RES5   0.0000
   635 H3      -2.9273  20.7465  26.5327   H         5 RES5   0.0000
   636 O2A     -3.5317  20.7465  18.7963   O.co2     5 RES5   0.0000
   637 C2      -4.2072  20.7465  16.5393   C.2       5 RES5   0.0000
   638 C3      -3.8452  20.7465  15.2047   C.2       5 RES5   0.0000
   639 H3      -2.9273  20.7465  14.9603   H         5 RES5   0.0000
   640 C1      -3.1491  20.7465  17.5974   C.2       5 RES5   0.0000
   641 O2A     -1.9502  20.7465  17.2148   O.co2     5 RES5   0.0000
   642 C3      -5.5418  20.7465  16.9013   C.2       5 RES5   0.0000
   643 H3      -5.7862  20.7465  17.8192   H         5 RES5   0.0000
   644 O2A      1.9502  20.7465  17.2148   O.co2     5 RES5   0.0000
   645 C3       5.5418  20.7465  16.9013   C.2       5 RES5   0.0000
   646 H3       5.7862  20.7465  17.8192   H         5 RES5   0.0000
   647 C3       0.0000  14.2184  15.9151   C.2       5 RES5   0.0000
   648 C3       0.0000  14.2184  25.5779   C.2       5 RES5   0.0000
   649 C3       0.0000  27.2746  25.5779   C.2       5 RES5   0.0000
   650 C3       0.0000  27.2746  15.9151   C.2       5 RES5   0.0000
   651 C3       0.0000  15.9151  27.2746   C.2       5 RES5   0.0000
   652 C3       0.0000  25.5779  27.2746   C.2       5 RES5   0.0000
   653 C3       0.0000  25.5779  14.2184   C.2       5 RES5   0.0000
   654 C3       0.0000  15.9151  14.2184   C.2       5 RES5   0.0000
   655 C3      -4.8314  20.7465  14.2184   C.2       5 RES5   0.0000
   656 C3       4.8314  20.7465  14.2184   C.2       5 RES5   0.0000
   657 C3       4.8314  20.7465  27.2746   C.2       5 RES5   0.0000
   658 C3      -4.8314  20.7465  27.2746   C.2       5 RES5   0.0000
   659 C3      -6.5281  20.7465  25.5779   C.2       5 RES5   0.0000
   660 C3      -6.5281  20.7465  15.9151   C.2       5 RES5   0.0000
   661 C3       6.5281  20.7465  15.9151   C.2       5 RES5   0.0000
   662 C3       6.5281  20.7465  25.5779   C.2       5 RES5   0.0000
   663 C3      -6.5281  15.9151  20.7465   C.2       5 RES5   0.0000
   664 C3      -6.5281  25.5779  20.7465   C.2       5 RES5   0.0000
   665 C3       6.5281  25.5779  20.7465   C.2       5 RES5   0.0000
   666 C3       6.5281  15.9151  20.7465   C.2       5 RES5   0.0000
   667 C3      -4.8314  14.2184  20.7465   C.2       5 RES5   0.0000
   668 C3       4.8314  14.2184  20.7465   C.2       5 RES5   0.0000
   669 C3       4.8314  27.2746  20.7465   C.2       5 RES5   0.0000
   670 C3      -4.8314  27.2746  20.7465   C.2       5 RES5   0.0000
   671 Zr1      0.0000  20.7465  43.9774   Zr        6 RES6   0.0000
   672 O2A      1.9502  20.7465  45.0247   O.co2     6 RES6   0.0000
   673 C2       4.2072  20.7465  45.7002   C.2       6 RES6   0.0000
   674 C3       5.5418  20.7465  45.3382   C.2       6 RES6   0.0000
   675 H3       5.7862  20.7465  44.4203   H         6 RES6   0.0000
   676 O1A     -1.0477  19.6988  42.5407   O.3       6 RES6   0.0000
   677 C1       3.1491  20.7465  44.6421   C.2       6 RES6   0.0000
   678 O2A     -1.9502  20.7465  45.0247   O.co2     6 RES6   0.0000
   679 C2      -4.2072  20.7465  45.7002   C.2       6 RES6   0.0000
   680 C3      -5.5418  20.7465  45.3382   C.2       6 RES6   0.0000
   681 H3      -5.7862  20.7465  44.4203   H         6 RES6   0.0000
   682 O1A      1.0477  21.7942  42.5407   O.3       6 RES6   0.0000
   683 C1      -3.1491  20.7465  44.6421   C.2       6 RES6   0.0000
   684 Zr1      2.4844  20.7465  41.4930   Zr        6 RES6   0.0000
   685 O2A      3.5317  22.6967  41.4930   O.co2     6 RES6   0.0000
   686 C2       4.2072  24.9537  41.4930   C.2       6 RES6   0.0000
   687 C3       3.8452  26.2883  41.4930   C.2       6 RES6   0.0000
   688 H3       2.9273  26.5327  41.4930   H         6 RES6   0.0000
   689 O1A      1.0477  19.6988  40.4453   O.3       6 RES6   0.0000
   690 C1       3.1491  23.8956  41.4930   C.2       6 RES6   0.0000
   691 O2A      3.5317  18.7963  41.4930   O.co2     6 RES6   0.0000
   692 C2       4.2072  16.5393  41.4930   C.2       6 RES6   0.0000
   693 C3       3.8452  15.2047  41.4930   C.2       6 RES6   0.0000
   694 H3       2.9273  14.9603  41.4930   H         6 RES6   0.0000
   695 C1       3.1491  17.5974  41.4930   C.2       6 RES6   0.0000
   696 Zr1     -2.4844  20.7465  41.4930   Zr        6 RES6   0.0000
   697 O2A     -3.5317  18.7963  41.4930   O.co2     6 RES6   0.0000
   698 C2      -4.2072  16.5393  41.4930   C.2       6 RES6   0.0000
   699 C3      -3.8452  15.2047  41.4930   C.2       6 RES6   0.0000
   700 H3      -2.9273  14.9603  41.4930   H         6 RES6   0.0000
   701 O1A     -1.0477  21.7942  40.4453   O.3       6 RES6   0.0000
   702 C1      -3.1491  17.5974  41.4930   C.2       6 RES6   0.0000
   703 O2A     -3.5317  22.6967  41.4930   O.co2     6 RES6   0.0000
   704 C2      -4.2072  24.9537  41.4930   C.2       6 RES6   0.0000
   705 C3      -3.8452  26.2883  41.4930   C.2       6 RES6   0.0000
   706 H3      -2.9273  26.5327  41.4930   H         6 RES6   0.0000
   707 C1      -3.1491  23.8956  41.4930   C.2       6 RES6   0.0000
   708 Zr1      0.0000  23.2309  41.4930   Zr        6 RES6   0.0000
   709 O2A      0.0000  24.2782  43.4432   O.co2     6 RES6   0.0000
   710 C2       0.0000  24.9537  45.7002   C.2       6 RES6   0.0000
   711 C3       0.0000  24.5917  47.0348   C.2       6 RES6   0.0000
   712 H3       0.0000  23.6738  47.2792   H         6 RES6   0.0000
   713 C1       0.0000  23.8956  44.6421   C.2       6 RES6   0.0000
   714 O2A      0.0000  24.2782  39.5428   O.co2     6 RES6   0.0000
   715 C2       0.0000  24.9537  37.2858   C.2       6 RES6   0.0000
   716 C3       0.0000  24.5917  35.9512   C.2       6 RES6   0.0000
   717 H3       0.0000  23.6738  35.7068   H         6 RES6   0.0000
   718 C1       0.0000  23.8956  38.3439   C.2       6 RES6   0.0000
   719 Zr1      0.0000  18.2621  41.4930   Zr        6 RES6   0.0000
   720 O2A      0.0000  17.2148  39.5428   O.co2     6 RES6   0.0000
   721 C2       0.0000  16.5393  37.2858   C.2       6 RES6   0.0000
   722 C3       0.0000  16.9013  35.9512   C.2       6 RES6   0.0000
   723 H3       0.0000  17.8192  35.7068   H         6 RES6   0.0000
   724 C1       0.0000  17.5974  38.3439   C.2       6 RES6   0.0000
   725 O2A      0.0000  17.2148  43.4432   O.co2     6 RES6   0.0000
   726 C2       0.0000  16.5393  45.7002   C.2       6 RES6   0.0000
   727 C3       0.0000  16.9013  47.0348   C.2       6 RES6   0.0000
   728 H3       0.0000  17.8192  47.2792   H         6 RES6   0.0000
   729 C1       0.0000  17.5974  44.6421   C.2       6 RES6   0.0000
   730 Zr1      0.0000  20.7465  39.0086   Zr        6 RES6   0.0000
   731 O2A      0.0000  22.6967  37.9613   O.co2     6 RES6   0.0000
   732 C3       0.0000  26.2883  37.6478   C.2       6 RES6   0.0000
   733 H3       0.0000  26.5327  38.5657   H         6 RES6   0.0000
   734 O1A     -1.0477  19.6988  40.4453   O.3       6 RES6   0.0000
   735 O2A      0.0000  18.7963  37.9613   O.co2     6 RES6   0.0000
   736 C3       0.0000  15.2047  37.6478   C.2       6 RES6   0.0000
   737 H3       0.0000  14.9603  38.5657   H         6 RES6   0.0000
   738 O1A      1.0477  21.7942  40.4453   O.3       6 RES6   0.0000
   739 O2A      0.0000  18.7963  45.0247   O.co2     6 RES6   0.0000
   740 C3       0.0000  15.2047  45.3382   C.2       6 RES6   0.0000
   741 H3       0.0000  14.9603  44.4203   H         6 RES6   0.0000
   742 O1A     -1.0477  21.7942  42.5407   O.3       6 RES6   0.0000
   743 O2A      0.0000  22.6967  45.0247   O.co2     6 RES6   0.0000
   744 C3       0.0000  26.2883  45.3382   C.2       6 RES6   0.0000
   745 H3       0.0000  26.5327  44.4203   H         6 RES6   0.0000
   746 O1A      1.0477  19.6988  42.5407   O.3       6 RES6   0.0000
   747 O2A      1.9502  24.2782  41.4930   O.co2     6 RES6   0.0000
   748 C3       5.5418  24.5917  41.4930   C.2       6 RES6   0.0000
   749 H3       5.7862  23.6738  41.4930   H         6 RES6   0.0000
   750 O2A     -1.9502  24.2782  41.4930   O.co2     6 RES6   0.0000
   751 C3      -5.5418  24.5917  41.4930   C.2       6 RES6   0.0000
   752 H3      -5.7862  23.6738  41.4930   H         6 RES6   0.0000
   753 O2A     -1.9502  17.2148  41.4930   O.co2     6 RES6   0.0000
   754 C3      -5.5418  16.9013  41.4930   C.2       6 RES6   0.0000
   755 H3      -5.7862  17.8192  41.4930   H         6 RES6   0.0000
   756 O2A      1.9502  17.2148  41.4930   O.co2     6 RES6   0.0000
   757 C3       5.5418  16.9013  41.4930   C.2       6 RES6   0.0000
   758 H3       5.7862  17.8192  41.4930   H         6 RES6   0.0000
   759 O2A      3.5317  20.7465  39.5428   O.co2     6 RES6   0.0000
   760 C2       4.2072  20.7465  37.2858   C.2       6 RES6   0.0000
   761 C3       3.8452  20.7465  35.9512   C.2       6 RES6   0.0000
   762 H3       2.9273  20.7465  35.7068   H         6 RES6   0.0000
   763 C1       3.1491  20.7465  38.3439   C.2       6 RES6   0.0000
   764 O2A      3.5317  20.7465  43.4432   O.co2     6 RES6   0.0000
   765 C3       3.8452  20.7465  47.0348   C.2       6 RES6   0.0000
   766 H3       2.9273  20.7465  47.2792   H         6 RES6   0.0000
   767 O2A     -3.5317  20.7465  43.4432   O.co2     6 RES6   0.0000
   768 C3      -3.8452  20.7465  47.0348   C.2       6 RES6   0.0000
   769 H3      -2.9273  20.7465  47.2792   H         6 RES6   0.0000
   770 O2A     -3.5317  20.7465  39.5428   O.co2     6 RES6   0.0000
   771 C2      -4.2072  20.7465  37.2858   C.2       6 RES6   0.0000
   772 C3      -3.8452  20.7465  35.9512   C.2       6 RES6   0.0000
   773 H3      -2.9273  20.7465  35.7068   H         6 RES6   0.0000
   774 C1      -3.1491  20.7465  38.3439   C.2       6 RES6   0.0000
   775 O2A     -1.9502  20.7465  37.9613   O.co2     6 RES6   0.0000
   776 C3      -5.5418  20.7465  37.6478   C.2       6 RES6   0.0000
   777 H3      -5.7862  20.7465  38.5657   H         6 RES6   0.0000
   778 O2A      1.9502  20.7465  37.9613   O.co2     6 RES6   0.0000
   779 C3       5.5418  20.7465  37.6478   C.2       6 RES6   0.0000
   780 H3       5.7862  20.7465  38.5657   H         6 RES6   0.0000
   781 C3       0.0000  14.2184  36.6616   C.2       6 RES6   0.0000
   782 C3       0.0000  14.2184  46.3244   C.2       6 RES6   0.0000
   783 C3       0.0000  27.2746  46.3244   C.2       6 RES6   0.0000
   784 C3       0.0000  27.2746  36.6616   C.2       6 RES6   0.0000
   785 C3       0.0000  15.9151  48.0211   C.2       6 RES6   0.0000
   786 C3       0.0000  25.5779  48.0211   C.2       6 RES6   0.0000
   787 C3       0.0000  25.5779  34.9649   C.2       6 RES6   0.0000
   788 C3       0.0000  15.9151  34.9649   C.2       6 RES6   0.0000
   789 C3      -4.8314  20.7465  34.9649   C.2       6 RES6   0.0000
   790 C3       4.8314  20.7465  34.9649   C.2       6 RES6   0.0000
   791 C3       4.8314  20.7465  48.0211   C.2       6 RES6   0.0000
   792 C3      -4.8314  20.7465  48.0211   C.2       6 RES6   0.0000
   793 C3      -6.5281  20.7465  46.3244   C.2       6 RES6   0.0000
   794 C3      -6.5281  20.7465  36.6616   C.2       6 RES6   0.0000
   795 C3       6.5281  20.7465  36.6616   C.2       6 RES6   0.0000
   796 C3       6.5281  20.7465  46.3244   C.2       6 RES6   0.0000
   797 C3      -6.5281  15.9151  41.4930   C.2       6 RES6   0.0000
   798 C3      -6.5281  25.5779  41.4930   C.2       6 RES6   0.0000
   799 C3       6.5281  25.5779  41.4930   C.2       6 RES6   0.0000
   800 C3       6.5281  15.9151  41.4930   C.2       6 RES6   0.0000
   801 C3      -4.8314  14.2184  41.4930   C.2       6 RES6   0.0000
   802 C3       4.8314  14.2184  41.4930   C.2       6 RES6   0.0000
   803 C3       4.8314  27.2746  41.4930   C.2       6 RES6   0.0000
   804 C3      -4.8314  27.2746  41.4930   C.2       6 RES6   0.0000
   805 Zr1      0.0000  41.4930   2.4844   Zr        7 RES7   0.0000
   806 O2A      1.9502  41.4930   3.5317   O.co2     7 RES7   0.0000
   807 C2       4.2072  41.4930   4.2072   C.2       7 RES7   0.0000
   808 C3       5.5418  41.4930   3.8452   C.2       7 RES7   0.0000
   809 H3       5.7862  41.4930   2.9273   H         7 RES7   0.0000
   810 O1A     -1.0477  40.4453   1.0477   O.3       7 RES7   0.0000
   811 C1       3.1491  41.4930   3.1491   C.2       7 RES7   0.0000
   812 O2A     -1.9502  41.4930   3.5317   O.co2     7 RES7   0.0000
   813 C2      -4.2072  41.4930   4.2072   C.2       7 RES7   0.0000
   814 C3      -5.5418  41.4930   3.8452   C.2       7 RES7   0.0000
   815 H3      -5.7862  41.4930   2.9273   H         7 RES7   0.0000
   816 O1A      1.0477  42.5407   1.0477   O.3       7 RES7   0.0000
   817 C1      -3.1491  41.4930   3.1491   C.2       7 RES7   0.0000
   818 Zr1      2.4844  41.4930   0.0000   Zr        7 RES7   0.0000
   819 O2A      3.5317  43.4432   0.0000   O.co2     7 RES7   0.0000
   820 C2       4.2072  45.7002   0.0000   C.2       7 RES7   0.0000
   821 C3       3.8452  47.0348   0.0000   C.2       7 RES7   0.0000
   822 H3       2.9273  47.2792   0.0000   H         7 RES7   0.0000
   823 O1A      1.0477  40.4453  -1.0477   O.3       7 RES7   0.0000
   824 C1       3.1491  44.6421   0.0000   C.2       7 RES7   0.0000
   825 O2A      3.5317  39.5428   0.0000   O.co2     7 RES7   0.0000
   826 C2       4.2072  37.2858   0.0000   C.2       7 RES7   0.0000
   827 C3       3.8452  35.9512   0.0000   C.2       7 RES7   0.0000
   828 H3       2.9273  35.7068   0.0000   H         7 RES7   0.0000
   829 C1       3.1491  38.3439   0.0000   C.2       7 RES7   0.0000
   830 Zr1     -2.4844  41.4930   0.0000   Zr        7 RES7   0.0000
   831 O2A     -3.5317  39.5428   0.0000   O.co2     7 RES7   0.0000
   832 C2      -4.2072  37.2858   0.0000   C.2       7 RES7   0.0000
   833 C3      -3.8452  35.9512   0.0000   C.2       7 RES7   0.0000
   834 H3      -2.9273  35.7068   0.0000   H         7 RES7   0.0000
   835 O1A     -1.0477  42.5407  -1.0477   O.3       7 RES7   0.0000
   836 C1      -3.1491  38.3439   0.0000   C.2       7 RES7   0.0000
   837 O2A     -3.5317  43.4432   0.0000   O.co2     7 RES7   0.0000
   838 C2      -4.2072  45.7002   0.0000   C.2       7 RES7   0.0000
   839 C3      -3.8452  47.0348   0.0000   C.2       7 RES7   0.0000
   840 H3      -2.9273  47.2792   0.0000   H         7 RES7   0.0000
   841 C1      -3.1491  44.6421   0.0000   C.2       7 RES7   0.0000
   842 Zr1      0.0000  43.9774   0.0000   Zr        7 RES7   0.0000
   843 O2A      0.0000  45.0247   1.9502   O.co2     7 RES7   0.0000
   844 C2       0.0000  45.7002   4.2072   C.2       7 RES7   0.0000
   845 C3       0.0000  45.3382   5.5418   C.2       7 RES7   0.0000
   846 H3       0.0000  44.4203   5.7862   H         7 RES7   0.0000
   847 C1       0.0000  44.6421   3.1491   C.2       7 RES7   0.0000
   848 O2A      0.0000  45.0247  -1.9502   O.co2     7 RES7   0.0000
   849 C2       0.0000  45.7002  -4.2072   C.2       7 RES7   0.0000
   850 C3       0.0000  45.3382  -5.5418   C.2       7 RES7   0.0000
   851 H3       0.0000  44.4203  -5.7862   H         7 RES7   0.0000
   852 C1       0.0000  44.6421  -3.1491   C.2       7 RES7   0.0000
   853 Zr1      0.0000  39.0086   0.0000   Zr        7 RES7   0.0000
   854 O2A      0.0000  37.9613  -1.9502   O.co2     7 RES7   0.0000
   855 C2       0.0000  37.2858  -4.2072   C.2       7 RES7   0.0000
   856 C3       0.0000  37.6478  -5.5418   C.2       7 RES7   0.0000
   857 H3       0.0000  38.5657  -5.7862   H         7 RES7   0.0000
   858 C1       0.0000  38.3439  -3.1491   C.2       7 RES7   0.0000
   859 O2A      0.0000  37.9613   1.9502   O.co2     7 RES7   0.0000
   860 C2       0.0000  37.2858   4.2072   C.2       7 RES7   0.0000
   861 C3       0.0000  37.6478   5.5418   C.2       7 RES7   0.0000
   862 H3       0.0000  38.5657   5.7862   H         7 RES7   0.0000
   863 C1       0.0000  38.3439   3.1491   C.2       7 RES7   0.0000
   864 Zr1      0.0000  41.4930  -2.4844   Zr        7 RES7   0.0000
   865 O2A      0.0000  43.4432  -3.5317   O.co2     7 RES7   0.0000
   866 C3       0.0000  47.0348  -3.8452   C.2       7 RES7   0.0000
   867 H3       0.0000  47.2792  -2.9273   H         7 RES7   0.0000
   868 O1A     -1.0477  40.4453  -1.0477   O.3       7 RES7   0.0000
   869 O2A      0.0000  39.5428  -3.5317   O.co2     7 RES7   0.0000
   870 C3       0.0000  35.9512  -3.8452   C.2       7 RES7   0.0000
   871 H3       0.0000  35.7068  -2.9273   H         7 RES7   0.0000
   872 O1A      1.0477  42.5407  -1.0477   O.3       7 RES7   0.0000
   873 O2A      0.0000  39.5428   3.5317   O.co2     7 RES7   0.0000
   874 C3       0.0000  35.9512   3.8452   C.2       7 RES7   0.0000
   875 H3       0.0000  35.7068   2.9273   H         7 RES7   0.0000
   876 O1A     -1.0477  42.5407   1.0477   O.3       7 RES7   0.0000
   877 O2A      0.0000  43.4432   3.5317   O.co2     7 RES7   0.0000
   878 C3       0.0000  47.0348   3.8452   C.2       7 RES7   0.0000
   879 H3       0.0000  47.2792   2.9273   H         7 RES7   0.0000
   880 O1A      1.0477  40.4453   1.0477   O.3       7 RES7   0.0000
   881 O2A      1.9502  45.0247   0.0000   O.co2     7 RES7   0.0000
   882 C3       5.5418  45.3382   0.0000   C.2       7 RES7   0.0000
   883 H3       5.7862  44.4203   0.0000   H         7 RES7   0.0000
   884 O2A     -1.9502  45.0247   0.0000   O.co2     7 RES7   0.0000
   885 C3      -5.5418  45.3382   0.0000   C.2       7 RES7   0.0000
   886 H3      -5.7862  44.4203   0.0000   H         7 RES7   0.0000
   887 O2A     -1.9502  37.9613   0.0000   O.co2     7 RES7   0.0000
   888 C3      -5.5418  37.6478   0.0000   C.2       7 RES7   0.0000
   889 H3      -5.7862  38.5657   0.0000   H         7 RES7   0.0000
   890 O2A      1.9502  37.9613   0.0000   O.co2     7 RES7   0.0000
   891 C3       5.5418  37.6478   0.0000   C.2       7 RES7   0.0000
   892 H3       5.7862  38.5657   0.0000   H         7 RES7   0.0000
   893 O2A      3.5317  41.4930  -1.9502   O.co2     7 RES7   0.0000
   894 C2       4.2072  41.4930  -4.2072   C.2       7 RES7   0.0000
   895 C3       3.8452  41.4930  -5.5418   C.2       7 RES7   0.0000
   896 H3       2.9273  41.4930  -5.7862   H         7 RES7   0.0000
   897 C1       3.1491  41.4930  -3.1491   C.2       7 RES7   0.0000
   898 O2A      3.5317  41.4930   1.9502   O.co2     7 RES7   0.0000
   899 C3       3.8452  41.4930   5.5418   C.2       7 RES7   0.0000
   900 H3       2.9273  41.4930   5.7862   H         7 RES7   0.0000
   901 O2A     -3.5317  41.4930   1.9502   O.co2     7 RES7   0.0000
   902 C3      -3.8452  41.4930   5.5418   C.2       7 RES7   0.0000
   903 H3      -2.9273  41.4930   5.7862   H         7 RES7   0.0000
   904 O2A     -3.5317  41.4930  -1.9502   O.co2     7 RES7   0.0000
   905 C2      -4.2072  41.4930  -4.2072   C.2       7 RES7   0.0000
   906 C3      -3.8452  41.4930  -5.5418   C.2       7 RES7   0.0000
   907 H3      -2.9273  41.4930  -5.7862   H         7 RES7   0.0000
   908 C1      -3.1491  41.4930  -3.1491   C.2       7 RES7   0.0000
   909 O2A     -1.9502  41.4930  -3.5317   O.co2     7 RES7   0.0000
   910 C3      -5.5418  41.4930  -3.8452   C.2       7 RES7   0.0000
   911 H3      -5.7862  41.4930  -2.9273   H         7 RES7   0.0000
   912 O2A      1.9502  41.4930  -3.5317   O.co2     7 RES7   0.0000
   913 C3       5.5418  41.4930  -3.8452   C.2       7 RES7   0.0000
   914 H3       5.7862  41.4930  -2.9273   H         7 RES7   0.0000
   915 C3       0.0000  34.9649  -4.8314   C.2       7 RES7   0.0000
   916 C3       0.0000  34.9649   4.8314   C.2       7 RES7   0.0000
   917 C3       0.0000  48.0211   4.8314   C.2       7 RES7   0.0000
   918 C3       0.0000  48.0211  -4.8314   C.2       7 RES7   0.0000
   919 C3       0.0000  36.6616   6.5281   C.2       7 RES7   0.0000
   920 C3       0.0000  46.3244   6.5281   C.2       7 RES7   0.0000
   921 C3       0.0000  46.3244  -6.5281   C.2       7 RES7   0.0000
   922 C3       0.0000  36.6616  -6.5281   C.2       7 RES7   0.0000
   923 C3      -4.8314  41.4930  -6.5281   C.2       7 RES7   0.0000
   924 C3       4.8314  41.4930  -6.5281   C.2       7 RES7   0.0000
   925 C3       4.8314  41.4930   6.5281   C.2       7 RES7   0.0000
   926 C3      -4.8314  41.4930   6.5281   C.2       7 RES7   0.0000
   927 C3      -6.5281  41.4930   4.8314   C.2       7 RES7   0.0000
   928 C3      -6.5281  41.4930  -4.8314   C.2       7 RES7   0.0000
   929 C3       6.5281  41.4930  -4.8314   C.2       7 RES7   0.0000
   930 C3       6.5281  41.4930   4.8314   C.2       7 RES7   0.0000
   931 C3      -6.5281  36.6616   0.0000   C.2       7 RES7   0.0000
   932 C3      -6.5281  46.3244   0.0000   C.2       7 RES7   0.0000
   933 C3       6.5281  46.3244   0.0000   C.2       7 RES7   0.0000
   934 C3       6.5281  36.6616   0.0000   C.2       7 RES7   0.0000
   935 C3      -4.8314  34.9649   0.0000   C.2       7 RES7   0.0000
   936 C3       4.8314  34.9649   0.0000   C.2       7 RES7   0.0000
   937 C3       4.8314  48.0211   0.0000   C.2       7 RES7   0.0000
   938 C3      -4.8314  48.0211   0.0000   C.2       7 RES7   0.0000
   939 Zr1      0.0000  41.4930  23.2309   Zr        8 RES8   0.0000
   940 O2A      1.9502  41.4930  24.2782   O.co2     8 RES8   0.0000
   941 C2       4.2072  41.4930  24.9537   C.2       8 RES8   0.0000
   942 C3       5.5418  41.4930  24.5917   C.2       8 RES8   0.0000
   943 H3       5.7862  41.4930  23.6738   H         8 RES8   0.0000
   944 O1A     -1.0477  40.4453  21.7942   O.3       8 RES8   0.0000
   945 C1       3.1491  41.4930  23.8956   C.2       8 RES8   0.0000
   946 O2A     -1.9502  41.4930  24.2782   O.co2     8 RES8   0.0000
   947 C2      -4.2072  41.4930  24.9537   C.2       8 RES8   0.0000
   948 C3      -5.5418  41.4930  24.5917   C.2       8 RES8   0.0000
   949 H3      -5.7862  41.4930  23.6738   H         8 RES8   0.0000
   950 O1A      1.0477  42.5407  21.7942   O.3       8 RES8   0.0000
   951 C1      -3.1491  41.4930  23.8956   C.2       8 RES8   0.0000
   952 Zr1      2.4844  41.4930  20.7465   Zr        8 RES8   0.0000
   953 O2A      3.5317  43.4432  20.7465   O.co2     8 RES8   0.0000
   954 C2       4.2072  45.7002  20.7465   C.2       8 RES8   0.0000
   955 C3       3.8452  47.0348  20.7465   C.2       8 RES8   0.0000
   956 H3       2.9273  47.2792  20.7465   H         8 RES8   0.0000
   957 O1A      1.0477  40.4453  19.6988   O.3       8 RES8   0.0000
   958 C1       3.1491  44.6421  20.7465   C.2       8 RES8   0.0000
   959 O2A      3.5317  39.5428  20.7465   O.co2     8 RES8   0.0000
   960 C2       4.2072  37.2858  20.7465   C.2       8 RES8   0.0000
   961 C3       3.8452  35.9512  20.7465   C.2       8 RES8   0.0000
   962 H3       2.9273  35.7068  20.7465   H         8 RES8   0.0000
   963 C1       3.1491  38.3439  20.7465   C.2       8 RES8   0.0000
   964 Zr1     -2.4844  41.4930  20.7465   Zr        8 RES8   0.0000
   965 O2A     -3.5317  39.5428  20.7465   O.co2     8 RES8   0.0000
   966 C2      -4.2072  37.2858  20.7465   C.2       8 RES8   0.0000
   967 C3      -3.8452  35.9512  20.7465   C.2       8 RES8   0.0000
   968 H3      -2.9273  35.7068  20.7465   H         8 RES8   0.0000
   969 O1A     -1.0477  42.5407  19.6988   O.3       8 RES8   0.0000
   970 C1      -3.1491  38.3439  20.7465   C.2       8 RES8   0.0000
   971 O2A     -3.5317  43.4432  20.7465   O.co2     8 RES8   0.0000
   972 C2      -4.2072  45.7002  20.7465   C.2       8 RES8   0.0000
   973 C3      -3.8452  47.0348  20.7465   C.2       8 RES8   0.0000
   974 H3      -2.9273  47.2792  20.7465   H         8 RES8   0.0000
   975 C1      -3.1491  44.6421  20.7465   C.2       8 RES8   0.0000
   976 Zr1      0.0000  43.9774  20.7465   Zr        8 RES8   0.0000
   977 O2A      0.0000  45.0247  22.6967   O.co2     8 RES8   0.0000
   978 C2       0.0000  45.7002  24.9537   C.2       8 RES8   0.0000
   979 C3       0.0000  45.3382  26.2883   C.2       8 RES8   0.0000
   980 H3       0.0000  44.4203  26.5327   H         8 RES8   0.0000
   981 C1       0.0000  44.6421  23.8956   C.2       8 RES8   0.0000
   982 O2A      0.0000  45.0247  18.7963   O.co2     8 RES8   0.0000
   983 C2       0.0000  45.7002  16.5393   C.2       8 RES8   0.0000
   984 C3       0.0000  45.3382  15.2047   C.2       8 RES8   0.0000
   985 H3       0.0000  44.4203  14.9603   H         8 RES8   0.0000
   986 C1       0.0000  44.6421  17.5974   C.2       8 RES8   0.0000
   987 Zr1      0.0000  39.0086  20.7465   Zr        8 RES8   0.0000
   988 O2A      0.0000  37.9613  18.7963   O.co2     8 RES8   0.0000
   989 C2       0.0000  37.2858  16.5393   C.2       8 RES8   0.0000
   990 C3       0.0000  37.6478  15.2047   C.2       8 RES8   0.0000
   991 H3       0.0000  38.5657  14.9603   H         8 RES8   0.0000
   992 C1       0.0000  38.3439  17.5974   C.2       8 RES8   0.0000
   993 O2A      0.0000  37.9613  22.6967   O.co2     8 RES8   0.0000
   994 C2       0.0000  37.2858  24.9537   C.2       8 RES8   0.0000
   995 C3       0.0000  37.6478  26.2883   C.2       8 RES8   0.0000
   996 H3       0.0000  38.5657  26.5327   H         8 RES8   0.0000
   997 C1       0.0000  38.3439  23.8956   C.2       8 RES8   0.0000
   998 Zr1      0.0000  41.4930  18.2621   Zr        8 RES8   0.0000
   999 O2A      0.0000  43.4432  17.2148   O.co2     8 RES8   0.0000
  1000 C3       0.0000  47.0348  16.9013   C.2       8 RES8   0.0000
  1001 H3       0.0000  47.2792  17.8192   H         8 RES8   0.0000
  1002 O1A     -1.0477  40.4453  19.6988   O.3       8 RES8   0.0000
  1003 O2A      0.0000  39.5428  17.2148   O.co2     8 RES8   0.0000
  1004 C3       0.0000  35.9512  16.9013   C.2       8 RES8   0.0000
  1005 H3       0.0000  35.7068  17.8192   H         8 RES8   0.0000
  1006 O1A      1.0477  42.5407  19.6988   O.3       8 RES8   0.0000
  1007 O2A      0.0000  39.5428  24.2782   O.co2     8 RES8   0.0000
  1008 C3       0.0000  35.9512  24.5917   C.2       8 RES8   0.0000
  1009 H3       0.0000  35.7068  23.6738   H         8 RES8   0.0000
  1010 O1A     -1.0477  42.5407  21.7942   O.3       8 RES8   0.0000
  1011 O2A      0.0000  43.4432  24.2782   O.co2     8 RES8   0.0000
  1012 C3       0.0000  47.0348  24.5917   C.2       8 RES8   0.0000
  1013 H3       0.0000  47.2792  23.6738   H         8 RES8   0.0000
  1014 O1A      1.0477  40.4453  21.7942   O.3       8 RES8   0.0000
  1015 O2A      1.9502  45.0247  20.7465   O.co2     8 RES8   0.0000
  1016 C3       5.5418  45.3382  20.7465   C.2       8 RES8   0.0000
  1017 H3       5.7862  44.4203  20.7465   H         8 RES8   0.0000
  1018 O2A     -1.9502  45.0247  20.7465   O.co2     8 RES8   0.0000
  1019 C3      -5.5418  45.3382  20.7465   C.2       8 RES8   0.0000
  1020 H3      -5.7862  44.4203  20.7465   H         8 RES8   0.0000
  1021 O2A     -1.9502  37.9613  20.7465   O.co2     8 RES8   0.0000
  1022 C3      -5.5418  37.6478  20.7465   C.2       8 RES8   0.0000
  1023 H3      -5.7862  38.5657  20.7465   H         8 RES8   0.0000
  1024 O2A      1.9502  37.9613  20.7465   O.co2     8 RES8   0.0000
  1025 C3       5.5418  37.6478  20.7465   C.2       8 RES8   0.0000
  1026 H3       5.7862  38.5657  20.7465   H         8 RES8   0.0000
  1027 O2A      3.5317  41.4930  18.7963   O.co2     8 RES8   0.0000
  1028 C2       4.2072  41.4930  16.5393   C.2       8 RES8   0.0000
  1029 C3       3.8452  41.4930  15.2047   C.2       8 RES8   0.0000
  1030 H3       2.9273  41.4930  14.9603   H         8 RES8   0.0000
  1031 C1       3.1491  41.4930  17.5974   C.2       8 RES8   0.0000
  1032 O2A      3.5317  41.4930  22.6967   O.co2     8 RES8   0.0000
  1033 C3       3.8452  41.4930  26.2883   C.2       8 RES8   0.0000
  1034 H3       2.9273  41.4930  26.5327   H         8 RES8   0.0000
  1035 O2A     -3.5317  41.4930  22.6967   O.co2     8 RES8   0.0000
  1036 C3      -3.8452  41.4930  26.2883   C.2       8 RES8   0.0000
  1037 H3      -2.9273  41.4930  26.5327   H         8 RES8   0.0000
  1038 O2A     -3.5317  41.4930  18.7963   O.co2     8 RES8   0.0000
  1039 C2      -4.2072  41.4930  16.5393   C.2       8 RES8   0.0000
  1040 C3      -3.8452  41.4930  15.2047   C.2       8 RES8   0.0000
  1041 H3      -2.9273  41.4930  14.9603   H         8 RES8   0.0000
  1042 C1      -3.1491  41.4930  17.5974   C.2       8 RES8   0.0000
  1043 O2A     -1.9502  41.4930  17.2148   O.co2     8 RES8   0.0000
  1044 C3      -5.5418  41.4930  16.9013   C.2       8 RES8   0.0000
  1045 H3      -5.7862  41.4930  17.8192   H         8 RES8   0.0000
  1046 O2A      1.9502  41.4930  17.2148   O.co2     8 RES8   0.0000
  1047 C3       5.5418  41.4930  16.9013   C.2       8 RES8   0.0000
  1048 H3       5.7862  41.4930  17.8192   H         8 RES8   0.0000
  1049 C3       0.0000  34.9649  15.9151   C.2       8 RES8   0.0000
  1050 C3       0.0000  34.9649  25.5779   C.2       8 RES8   0.0000
  1051 C3       0.0000  48.0211  25.5779   C.2       8 RES8   0.0000
  1052 C3       0.0000  48.0211  15.9151   C.2       8 RES8   0.0000
  1053 C3       0.0000  36.6616  27.2746   C.2       8 RES8   0.0000
  1054 C3       0.0000  46.3244  27.2746   C.2       8 RES8   0.0000
  1055 C3       0.0000  46.3244  14.2184   C.2       8 RES8   0.0000
  1056 C3       0.0000  36.6616  14.2184   C.2       8 RES8   0.0000
  1057 C3      -4.8314  41.4930  14.2184   C.2       8 RES8   0.0000
  1058 C3       4.8314  41.4930  14.2184   C.2       8 RES8   0.0000
  1059 C3       4.8314  41.4930  27.2746   C.2       8 RES8   0.0000
  1060 C3      -4.8314  41.4930  27.2746   C.2       8 RES8   0.0000
  1061 C3      -6.5281  41.4930  25.5779   C.2       8 RES8   0.0000
  1062 C3      -6.5281  41.4930  15.9151   C.2       8 RES8   0.0000
  1063 C3       6.5281  41.4930  15.9151   C.2       8 RES8   0.0000
  1064 C3       6.5281  41.4930  25.5779   C.2       8 RES8   0.0000
  1065 C3      -6.5281  36.6616  20.7465   C.2       8 RES8   0.0000
  1066 C3      -6.5281  46.3244  20.7465   C.2       8 RES8   0.0000
  1067 C3       6.5281  46.3244  20.7465   C.2       8 RES8   0.0000
  1068 C3       6.5281  36.6616  20.7465   C.2       8 RES8   0.0000
  1069 C3      -4.8314  34.9649  20.7465   C.2       8 RES8   0.0000
  1070 C3       4.8314  34.9649  20.7465   C.2       8 RES8   0.0000
  1071 C3       4.8314  48.0211  20.7465   C.2       8 RES8   0.0000
  1072 C3      -4.8314  48.0211  20.7465   C.2       8 RES8   0.0000
  1073 Zr1      0.0000  41.4930  43.9774   Zr        9 RES9   0.0000
  1074 O2A      1.9502  41.4930  45.0247   O.co2     9 RES9   0.0000
  1075 C2       4.2072  41.4930  45.7002   C.2       9 RES9   0.0000
  1076 C3       5.5418  41.4930  45.3382   C.2       9 RES9   0.0000
  1077 H3       5.7862  41.4930  44.4203   H         9 RES9   0.0000
  1078 O1A     -1.0477  40.4453  42.5407   O.3       9 RES9   0.0000
  1079 C1       3.1491  41.4930  44.6421   C.2       9 RES9   0.0000
  1080 O2A     -1.9502  41.4930  45.0247   O.co2     9 RES9   0.0000
  1081 C2      -4.2072  41.4930  45.7002   C.2       9 RES9   0.0000
  1082 C3      -5.5418  41.4930  45.3382   C.2       9 RES9   0.0000
  1083 H3      -5.7862  41.4930  44.4203   H         9 RES9   0.0000
  1084 O1A      1.0477  42.5407  42.5407   O.3       9 RES9   0.0000
  1085 C1      -3.1491  41.4930  44.6421   C.2       9 RES9   0.0000
  1086 Zr1      2.4844  41.4930  41.4930   Zr        9 RES9   0.0000
  1087 O2A      3.5317  43.4432  41.4930   O.co2     9 RES9   0.0000
  1088 C2       4.2072  45.7002  41.4930   C.2       9 RES9   0.0000
  1089 C3       3.8452  47.0348  41.4930   C.2       9 RES9   0.0000
  1090 H3       2.9273  47.2792  41.4930   H         9 RES9   0.0000
  1091 O1A      1.0477  40.4453  40.4453   O.3       9 RES9   0.0000
  1092 C1       3.1491  44.6421  41.4930   C.2       9 RES9   0.0000
  1093 O2A      3.5317  39.5428  41.4930   O.co2     9 RES9   0.0000
  1094 C2       4.2072  37.2858  41.4930   C.2       9 RES9   0.0000
  1095 C3       3.8452  35.9512  41.4930   C.2       9 RES9   0.0000
  1096 H3       2.9273  35.7068  41.4930   H         9 RES9   0.0000
  1097 C1       3.1491  38.3439  41.4930   C.2       9 RES9   0.0000
  1098 Zr1     -2.4844  41.4930  41.4930   Zr        9 RES9   0.0000
  1099 O2A     -3.5317  39.5428  41.4930   O.co2     9 RES9   0.0000
  1100 C2      -4.2072  37.2858  41.4930   C.2       9 RES9   0.0000
  1101 C3      -3.8452  35.9512  41.4930   C.2       9 RES9   0.0000
  1102 H3      -2.9273  35.7068  41.4930   H         9 RES9   0.0000
  1103 O1A     -1.0477  42.5407  40.4453   O.3       9 RES9   0.0000
  1104 C1      -3.1491  38.3439  41.4930   C.2       9 RES9   0.0000
  1105 O2A     -3.5317  43.4432  41.4930   O.co2     9 RES9   0.0000
  1106 C2      -4.2072  45.7002  41.4930   C.2       9 RES9   0.0000
  1107 C3      -3.8452  47.0348  41.4930   C.2       9 RES9   0.0000
  1108 H3      -2.9273  47.2792  41.4930   H         9 RES9   0.0000
  1109 C1      -3.1491  44.6421  41.4930   C.2       9 RES9   0.0000
  1110 Zr1      0.0000  43.9774  41.4930   Zr        9 RES9   0.0000
  1111 O2A      0.0000  45.0247  43.4432   O.co2     9 RES9   0.0000
  1112 C2       0.0000  45.7002  45.7002   C.2       9 RES9   0.0000
  1113 C3       0.0000  45.3382  47.0348   C.2       9 RES9   0.0000
  1114 H3       0.0000  44.4203  47.2792   H         9 RES9   0.0000
  1115 C1       0.0000  44.6421  44.6421   C.2       9 RES9   0.0000
  1116 O2A      0.0000  45.0247  39.5428   O.co2     9 RES9   0.0000
  1117 C2       0.0000  45.7002  37.2858   C.2       9 RES9   0.0000
  1118 C3       0.0000  45.3382  35.9512   C.2       9 RES9   0.0000
  1119 H3       0.0000  44.4203  35.7068   H         9 RES9   0.0000
  1120 C1       0.0000  44.6421  38.3439   C.2       9 RES9   0.0000
  1121 Zr1      0.0000  39.0086  41.4930   Zr        9 RES9   0.0000
  1122 O2A      0.0000  37.9613  39.5428   O.co2     9 RES9   0.0000
  1123 C2       0.0000  37.2858  37.2858   C.2       9 RES9   0.0000
  1124 C3       0.0000  37.6478  35.9512   C.2       9 RES9   0.0000
  1125 H3       0.0000  38.5657  35.7068   H         9 RES9   0.0000
  1126 C1       0.0000  38.3439  38.3439   C.2       9 RES9   0.0000
  1127 O2A      0.0000  37.9613  43.4432   O.co2     9 RES9   0.0000
  1128 C2       0.0000  37.2858  45.7002   C.2       9 RES9   0.0000
  1129 C3       0.0000  37.6478  47.0348   C.2       9 RES9   0.0000
  1130 H3       0.0000  38.5657  47.2792   H         9 RES9   0.0000
  1131 C1       0.0000  38.3439  44.6421   C.2       9 RES9   0.0000
  1132 Zr1      0.0000  41.4930  39.0086   Zr        9 RES9   0.0000
  1133 O2A      0.0000  43.4432  37.9613   O.co2     9 RES9   0.0000
  1134 C3       0.0000  47.0348  37.6478   C.2       9 RES9   0.0000
  1135 H3       0.0000  47.2792  38.5657   H         9 RES9   0.0000
  1136 O1A     -1.0477  40.4453  40.4453   O.3       9 RES9   0.0000
  1137 O2A      0.0000  39.5428  37.9613   O.co2     9 RES9   0.0000
  1138 C3       0.0000  35.9512  37.6478   C.2       9 RES9   0.0000
  1139 H3       0.0000  35.7068  38.5657   H         9 RES9   0.0000
  1140 O1A      1.0477  42.5407  40.4453   O.3       9 RES9   0.0000
  1141 O2A      0.0000  39.5428  45.0247   O.co2     9 RES9   0.0000
  1142 C3       0.0000  35.9512  45.3382   C.2       9 RES9   0.0000
  1143 H3       0.0000  35.7068  44.4203   H         9 RES9   0.0000
  1144 O1A     -1.0477  42.5407  42.5407   O.3       9 RES9   0.0000
  1145 O2A      0.0000  43.4432  45.0247   O.co2     9 RES9   0.0000
  1146 C3       0.0000  47.0348  45.3382   C.2       9 RES9   0.0000
  1147 H3       0.0000  47.2792  44.4203   H         9 RES9   0.0000
  1148 O1A      1.0477  40.4453  42.5407   O.3       9 RES9   0.0000
  1149 O2A      1.9502  45.0247  41.4930   O.co2     9 RES9   0.0000
  1150 C3       5.5418  45.3382  41.4930   C.2       9 RES9   0.0000
  1151 H3       5.7862  44.4203  41.4930   H         9 RES9   0.0000
  1152 O2A     -1.9502  45.0247  41.4930   O.co2     9 RES9   0.0000
  1153 C3      -5.5418  45.3382  41.4930   C.2       9 RES9   0.0000
  1154 H3      -5.7862  44.4203  41.4930   H         9 RES9   0.0000
  1155 O2A     -1.9502  37.9613  41.4930   O.co2     9 RES9   0.0000
  1156 C3      -5.5418  37.6478  41.4930   C.2       9 RES9   0.0000
  1157 H3      -5.7862  38.5657  41.4930   H         9 RES9   0.0000
  1158 O2A      1.9502  37.9613  41.4930   O.co2     9 RES9   0.0000
  1159 C3       5.5418  37.6478  41.4930   C.2       9 RES9   0.0000
  1160 H3       5.7862  38.5657  41.4930   H         9 RES9   0.0000
  1161 O2A      3.5317  41.4930  39.5428   O.co2     9 RES9   0.0000
  1162 C2       4.2072  41.4930  37.2858   C.2       9 RES9   0.0000
  1163 C3       3.8452  41.4930  35.9512   C.2       9 RES9   0.0000
  1164 H3       2.9273  41.4930  35.7068   H         9 RES9   0.0000
  1165 C1       3.1491  41.4930  38.3439   C.2       9 RES9   0.0000
  1166 O2A      3.5317  41.4930  43.4432   O.co2     9 RES9   0.0000
  1167 C3       3.8452  41.4930  47.0348   C.2       9 RES9   0.0000
  1168 H3       2.9273  41.4930  47.2792   H         9 RES9   0.0000
  1169 O2A     -3.5317  41.4930  43.4432   O.co2     9 RES9   0.0000
  1170 C3      -3.8452  41.4930  47.0348   C.2       9 RES9   0.0000
  1171 H3      -2.9273  41.4930  47.2792   H         9 RES9   0.0000
  1172 O2A     -3.5317  41.4930  39.5428   O.co2     9 RES9   0.0000
  1173 C2      -4.2072  41.4930  37.2858   C.2       9 RES9   0.0000
  1174 C3      -3.8452  41.4930  35.9512   C.2       9 RES9   0.0000
  1175 H3      -2.9273  41.4930  35.7068   H         9 RES9   0.0000
  1176 C1      -3.1491  41.4930  38.3439   C.2       9 RES9   0.0000
  1177 O2A     -1.9502  41.4930  37.9613   O.co2     9 RES9   0.0000
  1178 C3      -5.5418  41.4930  37.6478   C.2       9 RES9   0.0000
  1179 H3      -5.7862  41.4930  38.5657   H         9 RES9   0.0000
  1180 O2A      1.9502  41.4930  37.9613   O.co2     9 RES9   0.0000
  1181 C3       5.5418  41.4930  37.6478   C.2       9 RES9   0.0000
  1182 H3       5.7862  41.4930  38.5657   H         9 RES9   0.0000
  1183 C3       0.0000  34.9649  36.6616   C.2       9 RES9   0.0000
  1184 C3       0.0000  34.9649  46.3244   C.2       9 RES9   0.0000
  1185 C3       0.0000  48.0211  46.3244   C.2       9 RES9   0.0000
  1186 C3       0.0000  48.0211  36.6616   C.2       9 RES9   0.0000
  1187 C3       0.0000  36.6616  48.0211   C.2       9 RES9   0.0000
  1188 C3       0.0000  46.3244  48.0211   C.2       9 RES9   0.0000
  1189 C3       0.0000  46.3244  34.9649   C.2       9 RES9   0.0000
  1190 C3       0.0000  36.6616  34.9649   C.2       9 RES9   0.0000
  1191 C3      -4.8314  41.4930  34.9649   C.2       9 RES9   0.0000
  1192 C3       4.8314  41.4930  34.9649   C.2       9 RES9   0.0000
  1193 C3       4.8314  41.4930  48.0211   C.2       9 RES9   0.0000
  1194 C3      -4.8314  41.4930  48.0211   C.2       9 RES9   0.0000
  1195 C3      -6.5281  41.4930  46.3244   C.2       9 RES9   0.0000
  1196 C3      -6.5281  41.4930  36.6616   C.2       9 RES9   0.0000
  1197 C3       6.5281  41.4930  36.6616   C.2       9 RES9   0.0000
  1198 C3       6.5281  41.4930  46.3244   C.2       9 RES9   0.0000
  1199 C3      -6.5281  36.6616  41.4930   C.2       9 RES9   0.0000
  1200 C3      -6.5281  46.3244  41.4930   C.2       9 RES9   0.0000
  1201 C3       6.5281  46.3244  41.4930   C.2       9 RES9   0.0000
  1202 C3       6.5281  36.6616  41.4930   C.2       9 RES9   0.0000
  1203 C3      -4.8314  34.9649  41.4930   C.2       9 RES9   0.0000
  1204 C3       4.8314  34.9649  41.4930   C.2       9 RES9   0.0000
  1205 C3       4.8314  48.0211  41.4930   C.2       9 RES9   0.0000
  1206 C3      -4.8314  48.0211  41.4930   C.2       9 RES9   0.0000
  1207 Zr1     20.7465   0.0000   2.4844   Zr       10 RES10   0.0000
  1208 O2A     22.6967   0.0000   3.5317   O.co2    10 RES10   0.0000
  1209 C2      24.9537   0.0000   4.2072   C.2      10 RES10   0.0000
  1210 C3      26.2883   0.0000   3.8452   C.2      10 RES10   0.0000
  1211 H3      26.5327   0.0000   2.9273   H        10 RES10   0.0000
  1212 O1A     19.6988  -1.0477   1.0477   O.3      10 RES10   0.0000
  1213 C1      23.8956   0.0000   3.1491   C.2      10 RES10   0.0000
  1214 O2A     18.7963   0.0000   3.5317   O.co2    10 RES10   0.0000
  1215 C2      16.5393   0.0000   4.2072   C.2      10 RES10   0.0000
  1216 C3      15.2047   0.0000   3.8452   C.2      10 RES10   0.0000
  1217 H3      14.9603   0.0000   2.9273   H        10 RES10   0.0000
  1218 O1A     21.7942   1.0477   1.0477   O.3      10 RES10   0.0000
  1219 C1      17.5974   0.0000   3.1491   C.2      10 RES10   0.0000
  1220 Zr1     23.2309   0.0000   0.0000   Zr       10 RES10   0.0000
  1221 O2A     24.2782   1.9502   0.0000   O.co2    10 RES10   0.0000
  1222 C2      24.9537   4.2072   0.0000   C.2      10 RES10   0.0000
  1223 C3      24.5917   5.5418   0.0000   C.2      10 RES10   0.0000
  1224 H3      23.6738   5.7862   0.0000   H        10 RES10   0.0000
  1225 O1A     21.7942  -1.0477  -1.0477   O.3      10 RES10   0.0000
  1226 C1      23.8956   3.1491   0.0000   C.2      10 RES10   0.0000
  1227 O2A     24.2782  -1.9502   0.0000   O.co2    10 RES10   0.0000
  1228 C2      24.9537  -4.2072   0.0000   C.2      10 RES10   0.0000
  1229 C3      24.5917  -5.5418   0.0000   C.2      10 RES10   0.0000
  1230 H3      23.6738  -5.7862   0.0000   H        10 RES10   0.0000
  1231 C1      23.8956  -3.1491   0.0000   C.2      10 RES10   0.0000
  1232 Zr1     18.2621   0.0000   0.0000   Zr       10 RES10   0.0000
  1233 O2A     17.2148  -1.9502   0.0000   O.co2    10 RES10   0.0000
  1234 C2      16.5393  -4.2072   0.0000   C.2      10 RES10   0.0000
  1235 C3      16.9013  -5.5418   0.0000   C.2      10 RES10   0.0000
  1236 H3      17.8192  -5.7862   0.0000   H        10 RES10   0.0000
  1237 O1A     19.6988   1.0477  -1.0477   O.3      10 RES10   0.0000
  1238 C1      17.5974  -3.1491   0.0000   C.2      10 RES10   0.0000
  1239 O2A     17.2148   1.9502   0.0000   O.co2    10 RES10   0.0000
  1240 C2      16.5393   4.2072   0.0000   C.2      10 RES10   0.0000
  1241 C3      16.9013   5.5418   0.0000   C.2      10 RES10   0.0000
  1242 H3      17.8192   5.7862   0.0000   H        10 RES10   0.0000
  1243 C1      17.5974   3.1491   0.0000   C.2      10 RES10   0.0000
  1244 Zr1     20.7465   2.4844   0.0000   Zr       10 RES10   0.0000
  1245 O2A     20.7465   3.5317   1.9502   O.co2    10 RES10   0.0000
  1246 C2      20.7465   4.2072   4.2072   C.2      10 RES10   0.0000
  1247 C3      20.7465   3.8452   5.5418   C.2      10 RES10   0.0000
  1248 H3      20.7465   2.9273   5.7862   H        10 RES10   0.0000
  1249 C1      20.7465   3.1491   3.1491   C.2      10 RES10   0.0000
  1250 O2A     20.7465   3.5317  -1.9502   O.co2    10 RES10   0.0000
  1251 C2      20.7465   4.2072  -4.2072   C.2      10 RES10   0.0000
  1252 C3      20.7465   3.8452  -5.5418   C.2      10 RES10   0.0000
  1253 H3      20.7465   2.9273  -5.7862   H        10 RES10   0.0000
  1254 C1      20.7465   3.1491  -3.1491   C.2      10 RES10   0.0000
  1255 Zr1     20.7465  -2.4844   0.0000   Zr       10 RES10   0.0000
  1256 O2A     20.7465  -3.5317  -1.9502   O.co2    10 RES10   0.0000
  1257 C2      20.7465  -4.2072  -4.2072   C.2      10 RES10   0.0000
  1258 C3      20.7465  -3.8452  -5.5418   C.2      10 RES10   0.0000
  1259 H3      20.7465  -2.9273  -5.7862   H        10 RES10   0.0000
  1260 C1      20.7465  -3.1491  -3.1491   C.2      10 RES10   0.0000
  1261 O2A     20.7465  -3.5317   1.9502   O.co2    10 RES10   0.0000
  1262 C2      20.7465  -4.2072   4.2072   C.2      10 RES10   0.0000
  1263 C3      20.7465  -3.8452   5.5418   C.2      10 RES10   0.0000
  1264 H3      20.7465  -2.9273   5.7862   H        10 RES10   0.0000
  1265 C1      20.7465  -3.1491   3.1491   C.2      10 RES10   0.0000
  1266 Zr1     20.7465  -0.0000  -2.4844   Zr       10 RES10   0.0000
  1267 O2A     20.7465   1.9502  -3.5317   O.co2    10 RES10   0.0000
  1268 C3      20.7465   5.5418  -3.8452   C.2      10 RES10   0.0000
  1269 H3      20.7465   5.7862  -2.9273   H        10 RES10   0.0000
  1270 O1A     19.6988  -1.0477  -1.0477   O.3      10 RES10   0.0000
  1271 O2A     20.7465  -1.9502  -3.5317   O.co2    10 RES10   0.0000
  1272 C3      20.7465  -5.5418  -3.8452   C.2      10 RES10   0.0000
  1273 H3      20.7465  -5.7862  -2.9273   H        10 RES10   0.0000
  1274 O1A     21.7942   1.0477  -1.0477   O.3      10 RES10   0.0000
  1275 O2A     20.7465  -1.9502   3.5317   O.co2    10 RES10   0.0000
  1276 C3      20.7465  -5.5418   3.8452   C.2      10 RES10   0.0000
  1277 H3      20.7465  -5.7862   2.9273   H        10 RES10   0.0000
  1278 O1A     19.6988   1.0477   1.0477   O.3      10 RES10   0.0000
  1279 O2A     20.7465   1.9502   3.5317   O.co2    10 RES10   0.0000
  1280 C3      20.7465   5.5418   3.8452   C.2      10 RES10   0.0000
  1281 H3      20.7465   5.7862   2.9273   H        10 RES10   0.0000
  1282 O1A     21.7942  -1.0477   1.0477   O.3      10 RES10   0.0000
  1283 O2A     22.6967   3.5317   0.0000   O.co2    10 RES10   0.0000
  1284 C3      26.2883   3.8452   0.0000   C.2      10 RES10   0.0000
  1285 H3      26.5327   2.9273   0.0000   H        10 RES10   0.0000
  1286 O2A     18.7963   3.5317   0.0000   O.co2    10 RES10   0.0000
  1287 C3      15.2047   3.8452   0.0000   C.2      10 RES10   0.0000
  1288 H3      14.9603   2.9273   0.0000   H        10 RES10   0.0000
  1289 O2A     18.7963  -3.5317   0.0000   O.co2    10 RES10   0.0000
  1290 C3      15.2047  -3.8452   0.0000   C.2      10 RES10   0.0000
  1291 H3      14.9603  -2.9273   0.0000   H        10 RES10   0.0000
  1292 O2A     22.6967  -3.5317   0.0000   O.co2    10 RES10   0.0000
  1293 C3      26.2883  -3.8452   0.0000   C.2      10 RES10   0.0000
  1294 H3      26.5327  -2.9273   0.0000   H        10 RES10   0.0000
  1295 O2A     24.2782  -0.0000  -1.9502   O.co2    10 RES10   0.0000
  1296 C2      24.9537  -0.0000  -4.2072   C.2      10 RES10   0.0000
  1297 C3      24.5917  -0.0000  -5.5418   C.2      10 RES10   0.0000
  1298 H3      23.6738  -0.0000  -5.7862   H        10 RES10   0.0000
  1299 C1      23.8956  -0.0000  -3.1491   C.2      10 RES10   0.0000
  1300 O2A     24.2782   0.0000   1.9502   O.co2    10 RES10   0.0000
  1301 C3      24.5917   0.0000   5.5418   C.2      10 RES10   0.0000
  1302 H3      23.6738   0.0000   5.7862   H        10 RES10   0.0000
  1303 O2A     17.2148   0.0000   1.9502   O.co2    10 RES10   0.0000
  1304 C3      16.9013   0.0000   5.5418   C.2      10 RES10   0.0000
  1305 H3      17.8192   0.0000   5.7862   H        10 RES10   0.0000
  1306 O2A     17.2148  -0.0000  -1.9502   O.co2    10 RES10   0.0000
  1307 C2      16.5393  -0.0000  -4.2072   C.2      10 RES10   0.0000
  1308 C3      16.9013  -0.0000  -5.5418   C.2      10 RES10   0.0000
  1309 H3      17.8192  -0.0000  -5.7862   H        10 RES10   0.0000
  1310 C1      17.5974  -0.0000  -3.1491   C.2      10 RES10   0.0000
  1311 O2A     18.7963  -0.0000  -3.5317   O.co2    10 RES10   0.0000
  1312 C3      15.2047  -0.0000  -3.8452   C.2      10 RES10   0.0000
  1313 H3      14.9603  -0.0000  -2.9273   H        10 RES10   0.0000
  1314 O2A     22.6967  -0.0000  -3.5317   O.co2    10 RES10   0.0000
  1315 C3      26.2883  -0.0000  -3.8452   C.2      10 RES10   0.0000
  1316 H3      26.5327  -0.0000  -2.9273   H        10 RES10   0.0000
  1317 C3      20.7465  -6.5281  -4.8314   C.2      10 RES10   0.0000
  1318 C3      20.7465  -6.5281   4.8314   C.2      10 RES10   0.0000
  1319 C3      20.7465   6.5281   4.8314   C.2      10 RES10   0.0000
  1320 C3      20.7465   6.5281  -4.8314   C.2      10 RES10   0.0000
  1321 C3      20.7465  -4.8314   6.5281   C.2      10 RES10   0.0000
  1322 C3      20.7465   4.8314   6.5281   C.2      10 RES10   0.0000
  1323 C3      20.7465   4.8314  -6.5281   C.2      10 RES10   0.0000
  1324 C3      20.7465  -4.8314  -6.5281   C.2      10 RES10   0.0000
  1325 C3      15.9151  -0.0000  -6.5281   C.2      10 RES10   0.0000
  1326 C3      25.5779  -0.0000  -6.5281   C.2      10 RES10   0.0000
  1327 C3      25.5779   0.0000   6.5281   C.2      10 RES10   0.0000
  1328 C3      15.9151   0.0000   6.5281   C.2      10 RES10   0.0000
  1329 C3      14.2184   0.0000   4.8314   C.2      10 RES10   0.0000
  1330 C3      14.2184  -0.0000  -4.8314   C.2      10 RES10   0.0000
  1331 C3      27.2746  -0.0000  -4.8314   C.2      10 RES10   0.0000
  1332 C3      27.2746   0.0000   4.8314   C.2      10 RES10   0.0000
  1333 C3      14.2184  -4.8314   0.0000   C.2      10 RES10   0.0000
  1334 C3      14.2184   4.8314   0.0000   C.2      10 RES10   0.0000
  1335 C3      27.2746   4.8314   0.0000   C.2      10 RES10   0.0000
  1336 C3      27.2746  -4.8314   0.0000   C.2      10 RES10   0.0000
  1337 C3      15.9151  -6.5281   0.0000   C.2      10 RES10   0.0000
  1338 C3      25.5779  -6.5281   0.0000   C.2      10 RES10   0.0000
  1339 C3      25.5779   6.5281   0.0000   C.2      10 RES10   0.0000
  1340 C3      15.9151   6.5281   0.0000   C.2      10 RES10   0.0000
  1341 Zr1     20.7465   0.0000  23.2309   Zr       11 RES11   0.0000
  1342 O2A     22.6967   0.0000  24.2782   O.co2    11 RES11   0.0000
  1343 C2      24.9537   0.0000  24.9537   C.2      11 RES11   0.0000
  1344 C3      26.2883   0.0000  24.5917   C.2      11 RES11   0.0000
  1345 H3      26.5327   0.0000  23.6738   H        11 RES11   0.0000
  1346 O1A     19.6988  -1.0477  21.7942   O.3      11 RES11   0.0000
  1347 C1      23.8956   0.0000  23.8956   C.2      11 RES11   0.0000
  1348 O2A     18.7963   0.0000  24.2782   O.co2    11 RES11   0.0000
  1349 C2      16.5393   0.0000  24.9537   C.2      11 RES11   0.0000
  1350 C3      15.2047   0.0000  24.5917   C.2      11 RES11   0.0000
  1351 H3      14.9603   0.0000  23.6738   H        11 RES11   0.0000
  1352 O1A     21.7942   1.0477  21.7942   O.3      11 RES11   0.0000
  1353 C1      17.5974   0.0000  23.8956   C.2      11 RES11   0.0000
  1354 Zr1     23.2309   0.0000  20.7465   Zr       11 RES11   0.0000
  1355 O2A     24.2782   1.9502  20.7465   O.co2    11 RES11   0.0000
  1356 C2      24.9537   4.2072  20.7465   C.2      11 RES11   0.0000
  1357 C3      24.5917   5.5418  20.7465   C.2      11 RES11   0.0000
  1358 H3      23.6738   5.7862  20.7465   H        11 RES11   0.0000
  1359 O1A     21.7942  -1.0477  19.6988   O.3      11 RES11   0.0000
  1360 C1      23.8956   3.1491  20.7465   C.2      11 RES11   0.0000
  1361 O2A     24.2782  -1.9502  20.7465   O.co2    11 RES11   0.0000
  1362 C2      24.9537  -4.2072  20.7465   C.2      11 RES11   0.0000
  1363 C3      24.5917  -5.5418  20.7465   C.2      11 RES11   0.0000
  1364 H3      23.6738  -5.7862  20.7465   H        11 RES11   0.0000
  1365 C1      23.8956  -3.1491  20.7465   C.2      11 RES11   0.0000
  1366 Zr1     18.2621   0.0000  20.7465   Zr       11 RES11   0.0000
  1367 O2A     17.2148  -1.9502  20.7465   O.co2    11 RES11   0.0000
  1368 C2      16.5393  -4.2072  20.7465   C.2      11 RES11   0.0000
  1369 C3      16.9013  -5.5418  20.7465   C.2      11 RES11   0.0000
  1370 H3      17.8192  -5.7862  20.7465   H        11 RES11   0.0000
  1371 O1A     19.6988   1.0477  19.6988   O.3      11 RES11   0.0000
  1372 C1      17.5974  -3.1491  20.7465   C.2      11 RES11   0.0000
  1373 O2A     17.2148   1.9502  20.7465   O.co2    11 RES11   0.0000
  1374 C2      16.5393   4.2072  20.7465   C.2      11 RES11   0.0000
  1375 C3      16.9013   5.5418  20.7465   C.2      11 RES11   0.0000
  1376 H3      17.8192   5.7862  20.7465   H        11 RES11   0.0000
  1377 C1      17.5974   3.1491  20.7465   C.2      11 RES11   0.0000
  1378 Zr1     20.7465   2.4844  20.7465   Zr       11 RES11   0.0000
  1379 O2A     20.7465   3.5317  22.6967   O.co2    11 RES11   0.0000
  1380 C2      20.7465   4.2072  24.9537   C.2      11 RES11   0.0000
  1381 C3      20.7465   3.8452  26.2883   C.2      11 RES11   0.0000
  1382 H3      20.7465   2.9273  26.5327   H        11 RES11   0.0000
  1383 C1      20.7465   3.1491  23.8956   C.2      11 RES11   0.0000
  1384 O2A     20.7465   3.5317  18.7963   O.co2    11 RES11   0.0000
  1385 C2      20.7465   4.2072  16.5393   C.2      11 RES11   0.0000
  1386 C3      20.7465   3.8452  15.2047   C.2      11 RES11   0.0000
  1387 H3      20.7465   2.9273  14.9603   H        11 RES11   0.0000
  1388 C1      20.7465   3.1491  17.5974   C.2      11 RES11   0.0000
  1389 Zr1     20.7465  -2.4844  20.7465   Zr       11 RES11   0.0000
  1390 O2A     20.7465  -3.5317  18.7963   O.co2    11 RES11   0.0000
  1391 C2      20.7465  -4.2072  16.5393   C.2      11 RES11   0.0000
  1392 C3      20.7465  -3.8452  15.2047   C.2      11 RES11   0.0000
  1393 H3      20.7465  -2.9273  14.9603   H        11 RES11   0.0000
  1394 C1      20.7465  -3.1491  17.5974   C.2      11 RES11   0.0000
  1395 O2A     20.7465  -3.5317  22.6967   O.co2    11 RES11   0.0000
  1396 C2      20.7465  -4.2072  24.9537   C.2      11 RES11   0.0000
  1397 C3      20.7465  -3.8452  26.2883   C.2      11 RES11   0.0000
  1398 H3      20.7465  -2.9273  26.5327   H        11 RES11   0.0000
  1399 C1      20.7465  -3.1491  23.8956   C.2      11 RES11   0.0000
  1400 Zr1     20.7465   0.0000  18.2621   Zr       11 RES11   0.0000
  1401 O2A     20.7465   1.9502  17.2148   O.co2    11 RES11   0.0000
  1402 C3      20.7465   5.5418  16.9013   C.2      11 RES11   0.0000
  1403 H3      20.7465   5.7862  17.8192   H        11 RES11   0.0000
  1404 O1A     19.6988  -1.0477  19.6988   O.3      11 RES11   0.0000
  1405 O2A     20.7465  -1.9502  17.2148   O.co2    11 RES11   0.0000
  1406 C3      20.7465  -5.5418  16.9013   C.2      11 RES11   0.0000
  1407 H3      20.7465  -5.7862  17.8192   H        11 RES11   0.0000
  1408 O1A     21.7942   1.0477  19.6988   O.3      11 RES11   0.0000
  1409 O2A     20.7465  -1.9502  24.2782   O.co2    11 RES11   0.0000
  1410 C3      20.7465  -5.5418  24.5917   C.2      11 RES11   0.0000
  1411 H3      20.7465  -5.7862  23.6738   H        11 RES11   0.0000
  1412 O1A     19.6988   1.0477  21.7942   O.3      11 RES11   0.0000
  1413 O2A     20.7465   1.9502  24.2782   O.co2    11 RES11   0.0000
  1414 C3      20.7465   5.5418  24.5917   C.2      11 RES11   0.0000
  1415 H3      20.7465   5.7862  23.6738   H        11 RES11   0.0000
  1416 O1A     21.7942  -1.0477  21.7942   O.3      11 RES11   0.0000
  1417 O2A     22.6967   3.5317  20.7465   O.co2    11 RES11   0.0000
  1418 C3      26.2883   3.8452  20.7465   C.2      11 RES11   0.0000
  1419 H3      26.5327   2.9273  20.7465   H        11 RES11   0.0000
  1420 O2A     18.7963   3.5317  20.7465   O.co2    11 RES11   0.0000
  1421 C3      15.2047   3.8452  20.7465   C.2      11 RES11   0.0000
  1422 H3      14.9603   2.9273  20.7465   H        11 RES11   0.0000
  1423 O2A     18.7963  -3.5317  20.7465   O.co2    11 RES11   0.0000
  1424 C3      15.2047  -3.8452  20.7465   C.2      11 RES11   0.0000
  1425 H3      14.9603  -2.9273  20.7465   H        11 RES11   0.0000
  1426 O2A     22.6967  -3.5317  20.7465   O.co2    11 RES11   0.0000
  1427 C3      26.2883  -3.8452  20.7465   C.2      11 RES11   0.0000
  1428 H3      26.5327  -2.9273  20.7465   H        11 RES11   0.0000
  1429 O2A     24.2782   0.0000  18.7963   O.co2    11 RES11   0.0000
  1430 C2      24.9537   0.0000  16.5393   C.2      11 RES11   0.0000
  1431 C3      24.5917   0.0000  15.2047   C.2      11 RES11   0.0000
  1432 H3      23.6738   0.0000  14.9603   H        11 RES11   0.0000
  1433 C1      23.8956   0.0000  17.5974   C.2      11 RES11   0.0000
  1434 O2A     24.2782   0.0000  22.6967   O.co2    11 RES11   0.0000
  1435 C3      24.5917   0.0000  26.2883   C.2      11 RES11   0.0000
  1436 H3      23.6738   0.0000  26.5327   H        11 RES11   0.0000
  1437 O2A     17.2148   0.0000  22.6967   O.co2    11 RES11   0.0000
  1438 C3      16.9013   0.0000  26.2883   C.2      11 RES11   0.0000
  1439 H3      17.8192   0.0000  26.5327   H        11 RES11   0.0000
  1440 O2A     17.2148   0.0000  18.7963   O.co2    11 RES11   0.0000
  1441 C2      16.5393   0.0000  16.5393   C.2      11 RES11   0.0000
  1442 C3      16.9013   0.0000  15.2047   C.2      11 RES11   0.0000
  1443 H3      17.8192   0.0000  14.9603   H        11 RES11   0.0000
  1444 C1      17.5974   0.0000  17.5974   C.2      11 RES11   0.0000
  1445 O2A     18.7963   0.0000  17.2148   O.co2    11 RES11   0.0000
  1446 C3      15.2047   0.0000  16.9013   C.2      11 RES11   0.0000
  1447 H3      14.9603   0.0000  17.8192   H        11 RES11   0.0000
  1448 O2A     22.6967   0.0000  17.2148   O.co2    11 RES11   0.0000
  1449 C3      26.2883   0.0000  16.9013   C.2      11 RES11   0.0000
  1450 H3      26.5327   0.0000  17.8192   H        11 RES11   0.0000
  1451 C3      20.7465  -6.5281  15.9151   C.2      11 RES11   0.0000
  1452 C3      20.7465  -6.5281  25.5779   C.2      11 RES11   0.0000
  1453 C3      20.7465   6.5281  25.5779   C.2      11 RES11   0.0000
  1454 C3      20.7465   6.5281  15.9151   C.2      11 RES11   0.0000
  1455 C3      20.7465  -4.8314  27.2746   C.2      11 RES11   0.0000
  1456 C3      20.7465   4.8314  27.2746   C.2      11 RES11   0.0000
  1457 C3      20.7465   4.8314  14.2184   C.2      11 RES11   0.0000
  1458 C3      20.7465  -4.8314  14.2184   C.2      11 RES11   0.0000
  1459 C3      15.9151   0.0000  14.2184   C.2      11 RES11   0.0000
  1460 C3      25.5779   0.0000  14.2184   C.2      11 RES11   0.0000
  1461 C3      25.5779   0.0000  27.2746   C.2      11 RES11   0.0000
  1462 C3      15.9151   0.0000  27.2746   C.2      11 RES11   0.0000
  1463 C3      14.2184   0.0000  25.5779   C.2      11 RES11   0.0000
  1464 C3      14.2184   0.0000  15.9151   C.2      11 RES11   0.0000
  1465 C3      27.2746   0.0000  15.9151   C.2      11 RES11   0.0000
  1466 C3      27.2746   0.0000  25.5779   C.2      11 RES11   0.0000
  1467 C3      14.2184  -4.8314  20.7465   C.2      11 RES11   0.0000
  1468 C3      14.2184   4.8314  20.7465   C.2      11 RES11   0.0000
  1469 C3      27.2746   4.8314  20.7465   C.2      11 RES11   0.0000
  1470 C3      27.2746  -4.8314  20.7465   C.2      11 RES11   0.0000
  1471 C3      15.9151  -6.5281  20.7465   C.2      11 RES11   0.0000
  1472 C3      25.5779  -6.5281  20.7465   C.2      11 RES11   0.0000
  1473 C3      25.5779   6.5281  20.7465   C.2      11 RES11   0.0000
  1474 C3      15.9151   6.5281  20.7465   C.2      11 RES11   0.0000
  1475 Zr1     20.7465   0.0000  43.9774   Zr       12 RES12   0.0000
  1476 O2A     22.6967   0.0000  45.0247   O.co2    12 RES12   0.0000
  1477 C2      24.9537   0.0000  45.7002   C.2      12 RES12   0.0000
  1478 C3      26.2883   0.0000  45.3382   C.2      12 RES12   0.0000
  1479 H3      26.5327   0.0000  44.4203   H        12 RES12   0.0000
  1480 O1A     19.6988  -1.0477  42.5407   O.3      12 RES12   0.0000
  1481 C1      23.8956   0.0000  44.6421   C.2      12 RES12   0.0000
  1482 O2A     18.7963   0.0000  45.0247   O.co2    12 RES12   0.0000
  1483 C2      16.5393   0.0000  45.7002   C.2      12 RES12   0.0000
  1484 C3      15.2047   0.0000  45.3382   C.2      12 RES12   0.0000
  1485 H3      14.9603   0.0000  44.4203   H        12 RES12   0.0000
  1486 O1A     21.7942   1.0477  42.5407   O.3      12 RES12   0.0000
  1487 C1      17.5974   0.0000  44.6421   C.2      12 RES12   0.0000
  1488 Zr1     23.2309   0.0000  41.4930   Zr       12 RES12   0.0000
  1489 O2A     24.2782   1.9502  41.4930   O.co2    12 RES12   0.0000
  1490 C2      24.9537   4.2072  41.4930   C.2      12 RES12   0.0000
  1491 C3      24.5917   5.5418  41.4930   C.2      12 RES12   0.0000
  1492 H3      23.6738   5.7862  41.4930   H        12 RES12   0.0000
  1493 O1A     21.7942  -1.0477  40.4453   O.3      12 RES12   0.0000
  1494 C1      23.8956   3.1491  41.4930   C.2      12 RES12   0.0000
  1495 O2A     24.2782  -1.9502  41.4930   O.co2    12 RES12   0.0000
  1496 C2      24.9537  -4.2072  41.4930   C.2      12 RES12   0.0000
  1497 C3      24.5917  -5.5418  41.4930   C.2      12 RES12   0.0000
  1498 H3      23.6738  -5.7862  41.4930   H        12 RES12   0.0000
  1499 C1      23.8956  -3.1491  41.4930   C.2      12 RES12   0.0000
  1500 Zr1     18.2621   0.0000  41.4930   Zr       12 RES12   0.0000
  1501 O2A     17.2148  -1.9502  41.4930   O.co2    12 RES12   0.0000
  1502 C2      16.5393  -4.2072  41.4930   C.2      12 RES12   0.0000
  1503 C3      16.9013  -5.5418  41.4930   C.2      12 RES12   0.0000
  1504 H3      17.8192  -5.7862  41.4930   H        12 RES12   0.0000
  1505 O1A     19.6988   1.0477  40.4453   O.3      12 RES12   0.0000
  1506 C1      17.5974  -3.1491  41.4930   C.2      12 RES12   0.0000
  1507 O2A     17.2148   1.9502  41.4930   O.co2    12 RES12   0.0000
  1508 C2      16.5393   4.2072  41.4930   C.2      12 RES12   0.0000
  1509 C3      16.9013   5.5418  41.4930   C.2      12 RES12   0.0000
  1510 H3      17.8192   5.7862  41.4930   H        12 RES12   0.0000
  1511 C1      17.5974   3.1491  41.4930   C.2      12 RES12   0.0000
  1512 Zr1     20.7465   2.4844  41.4930   Zr       12 RES12   0.0000
  1513 O2A     20.7465   3.5317  43.4432   O.co2    12 RES12   0.0000
  1514 C2      20.7465   4.2072  45.7002   C.2      12 RES12   0.0000
  1515 C3      20.7465   3.8452  47.0348   C.2      12 RES12   0.0000
  1516 H3      20.7465   2.9273  47.2792   H        12 RES12   0.0000
  1517 C1      20.7465   3.1491  44.6421   C.2      12 RES12   0.0000
  1518 O2A     20.7465   3.5317  39.5428   O.co2    12 RES12   0.0000
  1519 C2      20.7465   4.2072  37.2858   C.2      12 RES12   0.0000
  1520 C3      20.7465   3.8452  35.9512   C.2      12 RES12   0.0000
  1521 H3      20.7465   2.9273  35.7068   H        12 RES12   0.0000
  1522 C1      20.7465   3.1491  38.3439   C.2      12 RES12   0.0000
  1523 Zr1     20.7465  -2.4844  41.4930   Zr       12 RES12   0.0000
  1524 O2A     20.7465  -3.5317  39.5428   O.co2    12 RES12   0.0000
  1525 C2      20.7465  -4.2072  37.2858   C.2      12 RES12   0.0000
  1526 C3      20.7465  -3.8452  35.9512   C.2      12 RES12   0.0000
  1527 H3      20.7465  -2.9273  35.7068   H        12 RES12   0.0000
  1528 C1      20.7465  -3.1491  38.3439   C.2      12 RES12   0.0000
  1529 O2A     20.7465  -3.5317  43.4432   O.co2    12 RES12   0.0000
  1530 C2      20.7465  -4.2072  45.7002   C.2      12 RES12   0.0000
  1531 C3      20.7465  -3.8452  47.0348   C.2      12 RES12   0.0000
  1532 H3      20.7465  -2.9273  47.2792   H        12 RES12   0.0000
  1533 C1      20.7465  -3.1491  44.6421   C.2      12 RES12   0.0000
  1534 Zr1     20.7465   0.0000  39.0086   Zr       12 RES12   0.0000
  1535 O2A     20.7465   1.9502  37.9613   O.co2    12 RES12   0.0000
  1536 C3      20.7465   5.5418  37.6478   C.2      12 RES12   0.0000
  1537 H3      20.7465   5.7862  38.5657   H        12 RES12   0.0000
  1538 O1A     19.6988  -1.0477  40.4453   O.3      12 RES12   0.0000
  1539 O2A     20.7465  -1.9502  37.9613   O.co2    12 RES12   0.0000
  1540 C3      20.7465  -5.5418  37.6478   C.2      12 RES12   0.0000
  1541 H3      20.7465  -5.7862  38.5657   H        12 RES12   0.0000
  1542 O1A     21.7942   1.0477  40.4453   O.3      12 RES12   0.0000
  1543 O2A     20.7465  -1.9502  45.0247   O.co2    12 RES12   0.0000
  1544 C3      20.7465  -5.5418  45.3382   C.2      12 RES12   0.0000
  1545 H3      20.7465  -5.7862  44.4203   H        12 RES12   0.0000
  1546 O1A     19.6988   1.0477  42.5407   O.3      12 RES12   0.0000
  1547 O2A     20.7465   1.9502  45.0247   O.co2    12 RES12   0.0000
  1548 C3      20.7465   5.5418  45.3382   C.2      12 RES12   0.0000
  1549 H3      20.7465   5.7862  44.4203   H        12 RES12   0.0000
  1550 O1A     21.7942  -1.0477  42.5407   O.3      12 RES12   0.0000
  1551 O2A     22.6967   3.5317  41.4930   O.co2    12 RES12   0.0000
  1552 C3      26.2883   3.8452  41.4930   C.2      12 RES12   0.0000
  1553 H3      26.5327   2.9273  41.4930   H        12 RES12   0.0000
  1554 O2A     18.7963   3.5317  41.4930   O.co2    12 RES12   0.0000
  1555 C3      15.2047   3.8452  41.4930   C.2      12 RES12   0.0000
  1556 H3      14.9603   2.9273  41.4930   H        12 RES12   0.0000
  1557 O2A     18.7963  -3.5317  41.4930   O.co2    12 RES12   0.0000
  1558 C3      15.2047  -3.8452  41.4930   C.2      12 RES12   0.0000
  1559 H3      14.9603  -2.9273  41.4930   H        12 RES12   0.0000
  1560 O2A     22.6967  -3.5317  41.4930   O.co2    12 RES12   0.0000
  1561 C3      26.2883  -3.8452  41.4930   C.2      12 RES12   0.0000
  1562 H3      26.5327  -2.9273  41.4930   H        12 RES12   0.0000
  1563 O2A     24.2782   0.0000  39.5428   O.co2    12 RES12   0.0000
  1564 C2      24.9537   0.0000  37.2858   C.2      12 RES12   0.0000
  1565 C3      24.5917   0.0000  35.9512   C.2      12 RES12   0.0000
  1566 H3      23.6738   0.0000  35.7068   H        12 RES12   0.0000
  1567 C1      23.8956   0.0000  38.3439   C.2      12 RES12   0.0000
  1568 O2A     24.2782   0.0000  43.4432   O.co2    12 RES12   0.0000
  1569 C3      24.5917   0.0000  47.0348   C.2      12 RES12   0.0000
  1570 H3      23.6738   0.0000  47.2792   H        12 RES12   0.0000
  1571 O2A     17.2148   0.0000  43.4432   O.co2    12 RES12   0.0000
  1572 C3      16.9013   0.0000  47.0348   C.2      12 RES12   0.0000
  1573 H3      17.8192   0.0000  47.2792   H        12 RES12   0.0000
  1574 O2A     17.2148   0.0000  39.5428   O.co2    12 RES12   0.0000
  1575 C2      16.5393   0.0000  37.2858   C.2      12 RES12   0.0000
  1576 C3      16.9013   0.0000  35.9512   C.2      12 RES12   0.0000
  1577 H3      17.8192   0.0000  35.7068   H        12 RES12   0.0000
  1578 C1      17.5974   0.0000  38.3439   C.2      12 RES12   0.0000
  1579 O2A     18.7963   0.0000  37.9613   O.co2    12 RES12   0.0000
  1580 C3      15.2047   0.0000  37.6478   C.2      12 RES12   0.0000
  1581 H3      14.9603   0.0000  38.5657   H        12 RES12   0.0000
  1582 O2A     22.6967   0.0000  37.9613   O.co2    12 RES12   0.0000
  1583 C3      26.2883   0.0000  37.6478   C.2      12 RES12   0.0000
  1584 H3      26.5327   0.0000  38.5657   H        12 RES12   0.0000
  1585 C3      20.7465  -6.5281  36.6616   C.2      12 RES12   0.0000
  1586 C3      20.7465  -6.5281  46.3244   C.2      12 RES12   0.0000
  1587 C3      20.7465   6.5281  46.3244   C.2      12 RES12   0.0000
  1588 C3      20.7465   6.5281  36.6616   C.2      12 RES12   0.0000
  1589 C3      20.7465  -4.8314  48.0211   C.2      12 RES12   0.0000
  1590 C3      20.7465   4.8314  48.0211   C.2      12 RES12   0.0000
  1591 C3      20.7465   4.8314  34.9649   C.2      12 RES12   0.0000
  1592 C3      20.7465  -4.8314  34.9649   C.2      12 RES12   0.0000
  1593 C3      15.9151   0.0000  34.9649   C.2      12 RES12   0.0000
  1594 C3      25.5779   0.0000  34.9649   C.2      12 RES12   0.0000
  1595 C3      25.5779   0.0000  48.0211   C.2      12 RES12   0.0000
  1596 C3      15.9151   0.0000  48.0211   C.2      12 RES12   0.0000
  1597 C3      14.2184   0.0000  46.3244   C.2      12 RES12   0.0000
  1598 C3      14.2184   0.0000  36.6616   C.2      12 RES12   0.0000
  1599 C3      27.2746   0.0000  36.6616   C.2      12 RES12   0.0000
  1600 C3      27.2746   0.0000  46.3244   C.2      12 RES12   0.0000
  1601 C3      14.2184  -4.8314  41.4930   C.2      12 RES12   0.0000
  1602 C3      14.2184   4.8314  41.4930   C.2      12 RES12   0.0000
  1603 C3      27.2746   4.8314  41.4930   C.2      12 RES12   0.0000
  1604 C3      27.2746  -4.8314  41.4930   C.2      12 RES12   0.0000
  1605 C3      15.9151  -6.5281  41.4930   C.2      12 RES12   0.0000
  1606 C3      25.5779  -6.5281  41.4930   C.2      12 RES12   0.0000
  1607 C3      25.5779   6.5281  41.4930   C.2      12 RES12   0.0000
  1608 C3      15.9151   6.5281  41.4930   C.2      12 RES12   0.0000
  1609 Zr1     20.7465  20.7465   2.4844   Zr       13 RES13   0.0000
  1610 O2A     22.6967  20.7465   3.5317   O.co2    13 RES13   0.0000
  1611 C2      24.9537  20.7465   4.2072   C.2      13 RES13   0.0000
  1612 C3      26.2883  20.7465   3.8452   C.2      13 RES13   0.0000
  1613 H3      26.5327  20.7465   2.9273   H        13 RES13   0.0000
  1614 O1A     19.6988  19.6988   1.0477   O.3      13 RES13   0.0000
  1615 C1      23.8956  20.7465   3.1491   C.2      13 RES13   0.0000
  1616 O2A     18.7963  20.7465   3.5317   O.co2    13 RES13   0.0000
  1617 C2      16.5393  20.7465   4.2072   C.2      13 RES13   0.0000
  1618 C3      15.2047  20.7465   3.8452   C.2      13 RES13   0.0000
  1619 H3      14.9603  20.7465   2.9273   H        13 RES13   0.0000
  1620 O1A     21.7942  21.7942   1.0477   O.3      13 RES13   0.0000
  1621 C1      17.5974  20.7465   3.1491   C.2      13 RES13   0.0000
  1622 Zr1     23.2309  20.7465   0.0000   Zr       13 RES13   0.0000
  1623 O2A     24.2782  22.6967   0.0000   O.co2    13 RES13   0.0000
  1624 C2      24.9537  24.9537   0.0000   C.2      13 RES13   0.0000
  1625 C3      24.5917  26.2883   0.0000   C.2      13 RES13   0.0000
  1626 H3      23.6738  26.5327   0.0000   H        13 RES13   0.0000
  1627 O1A     21.7942  19.6988  -1.0477   O.3      13 RES13   0.0000
  1628 C1      23.8956  23.8956   0.0000   C.2      13 RES13   0.0000
  1629 O2A     24.2782  18.7963   0.0000   O.co2    13 RES13   0.0000
  1630 C2      24.9537  16.5393   0.0000   C.2      13 RES13   0.0000
  1631 C3      24.5917  15.2047   0.0000   C.2      13 RES13   0.0000
  1632 H3      23.6738  14.9603   0.0000   H        13 RES13   0.0000
  1633 C1      23.8956  17.5974   0.0000   C.2      13 RES13   0.0000
  1634 Zr1     18.2621  20.7465   0.0000   Zr       13 RES13   0.0000
  1635 O2A     17.2148  18.7963   0.0000   O.co2    13 RES13   0.0000
  1636 C2      16.5393  16.5393   0.0000   C.2      13 RES13   0.0000
  1637 C3      16.9013  15.2047   0.0000   C.2      13 RES13   0.0000
  1638 H3      17.8192  14.9603   0.0000   H        13 RES13   0.0000
  1639 O1A     19.6988  21.7942  -1.0477   O.3      13 RES13   0.0000
  1640 C1      17.5974  17.5974   0.0000   C.2      13 RES13   0.0000
  1641 O2A     17.2148  22.6967   0.0000   O.co2    13 RES13   0.0000
  1642 C2      16.5393  24.9537   0.0000   C.2      13 RES13   0.0000
  1643 C3      16.9013  26.2883   0.0000   C.2      13 RES13   0.0000
  1644 H3      17.8192  26.5327   0.0000   H        13 RES13   0.0000
  1645 C1      17.5974  23.8956   0.0000   C.2      13 RES13   0.0000
  1646 Zr1     20.7465  23.2309   0.0000   Zr       13 RES13   0.0000
  1647 O2A     20.7465  24.2782   1.9502   O.co2    13 RES13   0.0000
  1648 C2      20.7465  24.9537   4.2072   C.2      13 RES13   0.0000
  1649 C3      20.7465  24.5917   5.5418   C.2      13 RES13   0.0000
  1650 H3      20.7465  23.6738   5.7862   H        13 RES13   0.0000
  1651 C1      20.7465  23.8956   3.1491   C.2      13 RES13   0.0000
  1652 O2A     20.7465  24.2782  -1.9502   O.co2    13 RES13   0.0000
  1653 C2      20.7465  24.9537  -4.2072   C.2      13 RES13   0.0000
  1654 C3      20.7465  24.5917  -5.5418   C.2      13 RES13   0.0000
  1655 H3      20.7465  23.6738  -5.7862   H        13 RES13   0.0000
  1656 C1      20.7465  23.8956  -3.1491   C.2      13 RES13   0.0000
  1657 Zr1     20.7465  18.2621   0.0000   Zr       13 RES13   0.0000
  1658 O2A     20.7465  17.2148  -1.9502   O.co2    13 RES13   0.0000
  1659 C2      20.7465  16.5393  -4.2072   C.2      13 RES13   0.0000
  1660 C3      20.7465  16.9013  -5.5418   C.2      13 RES13   0.0000
  1661 H3      20.7465  17.8192  -5.7862   H        13 RES13   0.0000
  1662 C1      20.7465  17.5974  -3.1491   C.2      13 RES13   0.0000
  1663 O2A     20.7465  17.2148   1.9502   O.co2    13 RES13   0.0000
  1664 C2      20.7465  16.5393   4.2072   C.2      13 RES13   0.0000
  1665 C3      20.7465  16.9013   5.5418   C.2      13 RES13   0.0000
  1666 H3      20.7465  17.8192   5.7862   H        13 RES13   0.0000
  1667 C1      20.7465  17.5974   3.1491   C.2      13 RES13   0.0000
  1668 Zr1     20.7465  20.7465  -2.4844   Zr       13 RES13   0.0000
  1669 O2A     20.7465  22.6967  -3.5317   O.co2    13 RES13   0.0000
  1670 C3      20.7465  26.2883  -3.8452   C.2      13 RES13   0.0000
  1671 H3      20.7465  26.5327  -2.9273   H        13 RES13   0.0000
  1672 O1A     19.6988  19.6988  -1.0477   O.3      13 RES13   0.0000
  1673 O2A     20.7465  18.7963  -3.5317   O.co2    13 RES13   0.0000
  1674 C3      20.7465  15.2047  -3.8452   C.2      13 RES13   0.0000
  1675 H3      20.7465  14.9603  -2.9273   H        13 RES13   0.0000
  1676 O1A     21.7942  21.7942  -1.0477   O.3      13 RES13   0.0000
  1677 O2A     20.7465  18.7963   3.5317   O.co2    13 RES13   0.0000
  1678 C3      20.7465  15.2047   3.8452   C.2      13 RES13   0.0000
  1679 H3      20.7465  14.9603   2.9273   H        13 RES13   0.0000
  1680 O1A     19.6988  21.7942   1.0477   O.3      13 RES13   0.0000
  1681 O2A     20.7465  22.6967   3.5317   O.co2    13 RES13   0.0000
  1682 C3      20.7465  26.2883   3.8452   C.2      13 RES13   0.0000
  1683 H3      20.7465  26.5327   2.9273   H        13 RES13   0.0000
  1684 O1A     21.7942  19.6988   1.0477   O.3      13 RES13   0.0000
  1685 O2A     22.6967  24.2782   0.0000   O.co2    13 RES13   0.0000
  1686 C3      26.2883  24.5917   0.0000   C.2      13 RES13   0.0000
  1687 H3      26.5327  23.6738   0.0000   H        13 RES13   0.0000
  1688 O2A     18.7963  24.2782   0.0000   O.co2    13 RES13   0.0000
  1689 C3      15.2047  24.5917   0.0000   C.2      13 RES13   0.0000
  1690 H3      14.9603  23.6738   0.0000   H        13 RES13   0.0000
  1691 O2A     18.7963  17.2148   0.0000   O.co2    13 RES13   0.0000
  1692 C3      15.2047  16.9013   0.0000   C.2      13 RES13   0.0000
  1693 H3      14.9603  17.8192   0.0000   H        13 RES13   0.0000
  1694 O2A     22.6967  17.2148   0.0000   O.co2    13 RES13   0.0000
  1695 C3      26.2883  16.9013   0.0000   C.2      13 RES13   0.0000
  1696 H3      26.5327  17.8192   0.0000   H        13 RES13   0.0000
  1697 O2A     24.2782  20.7465  -1.9502   O.co2    13 RES13   0.0000
  1698 C2      24.9537  20.7465  -4.2072   C.2      13 RES13   0.0000
  1699 C3      24.5917  20.7465  -5.5418   C.2      13 RES13   0.0000
  1700 H3      23.6738  20.7465  -5.7862   H        13 RES13   0.0000
  1701 C1      23.8956  20.7465  -3.1491   C.2      13 RES13   0.0000
  1702 O2A     24.2782  20.7465   1.9502   O.co2    13 RES13   0.0000
  1703 C3      24.5917  20.7465   5.5418   C.2      13 RES13   0.0000
  1704 H3      23.6738  20.7465   5.7862   H        13 RES13   0.0000
  1705 O2A     17.2148  20.7465   1.9502   O.co2    13 RES13   0.0000
  1706 C3      16.9013  20.7465   5.5418   C.2      13 RES13   0.0000
  1707 H3      17.8192  20.7465   5.7862   H        13 RES13   0.0000
  1708 O2A     17.2148  20.7465  -1.9502   O.co2    13 RES13   0.0000
  1709 C2      16.5393  20.7465  -4.2072   C.2      13 RES13   0.0000
  1710 C3      16.9013  20.7465  -5.5418   C.2      13 RES13   0.0000
  1711 H3      17.8192  20.7465  -5.7862   H        13 RES13   0.0000
  1712 C1      17.5974  20.7465  -3.1491   C.2      13 RES13   0.0000
  1713 O2A     18.7963  20.7465  -3.5317   O.co2    13 RES13   0.0000
  1714 C3      15.2047  20.7465  -3.8452   C.2      13 RES13   0.0000
  1715 H3      14.9603  20.7465  -2.9273   H        13 RES13   0.0000
  1716 O2A     22.6967  20.7465  -3.5317   O.co2    13 RES13   0.0000
  1717 C3      26.2883  20.7465  -3.8452   C.2      13 RES13   0.0000
  1718 H3      26.5327  20.7465  -2.9273   H        13 RES13   0.0000
  1719 C3      20.7465  14.2184  -4.8314   C.2      13 RES13   0.0000
  1720 C3      20.7465  14.2184   4.8314   C.2      13 RES13   0.0000
  1721 C3      20.7465  27.2746   4.8314   C.2      13 RES13   0.0000
  1722 C3      20.7465  27.2746  -4.8314   C.2      13 RES13   0.0000
  1723 C3      20.7465  15.9151   6.5281   C.2      13 RES13   0.0000
  1724 C3      20.7465  25.5779   6.5281   C.2      13 RES13   0.0000
  1725 C3      20.7465  25.5779  -6.5281   C.2      13 RES13   0.0000
  1726 C3      20.7465  15.9151  -6.5281   C.2      13 RES13   0.0000
  1727 C3      15.9151  20.7465  -6.5281   C.2      13 RES13   0.0000
  1728 C3      25.5779  20.7465  -6.5281   C.2      13 RES13   0.0000
  1729 C3      25.5779  20.7465   6.5281   C.2      13 RES13   0.0000
  1730 C3      15.9151  20.7465   6.5281   C.2      13 RES13   0.0000
  1731 C3      14.2184  20.7465   4.8314   C.2      13 RES13   0.0000
  1732 C3      14.2184  20.7465  -4.8314   C.2      13 RES13   0.0000
  1733 C3      27.2746  20.7465  -4.8314   C.2      13 RES13   0.0000
  1734 C3      27.2746  20.7465   4.8314   C.2      13 RES13   0.0000
  1735 C3      14.2184  15.9151   0.0000   C.2      13 RES13   0.0000
  1736 C3      14.2184  25.5779   0.0000   C.2      13 RES13   0.0000
  1737 C3      27.2746  25.5779   0.0000   C.2      13 RES13   0.0000
  1738 C3      27.2746  15.9151   0.0000   C.2      13 RES13   0.0000
  1739 C3      15.9151  14.2184   0.0000   C.2      13 RES13   0.0000
  1740 C3      25.5779  14.2184   0.0000   C.2      13 RES13   0.0000
  1741 C3      25.5779  27.2746   0.0000   C.2      13 RES13   0.0000
  1742 C3      15.9151  27.2746   0.0000   C.2      13 RES13   0.0000
  1743 Zr1     20.7465  20.7465  23.2309   Zr       14 RES14   0.0000
  1744 O2A     22.6967  20.7465  24.2782   O.co2    14 RES14   0.0000
  1745 C2      24.9537  20.7465  24.9537   C.2      14 RES14   0.0000
  1746 C3      26.2883  20.7465  24.5917   C.2      14 RES14   0.0000
  1747 H3      26.5327  20.7465  23.6738   H        14 RES14   0.0000
  1748 O1A     19.6988  19.6988  21.7942   O.3      14 RES14   0.0000
  1749 C1      23.8956  20.7465  23.8956   C.2      14 RES14   0.0000
  1750 O2A     18.7963  20.7465  24.2782   O.co2    14 RES14   0.0000
  1751 C2      16.5393  20.7465  24.9537   C.2      14 RES14   0.0000
  1752 C3      15.2047  20.7465  24.5917   C.2      14 RES14   0.0000
  1753 H3      14.9603  20.7465  23.6738   H        14 RES14   0.0000
  1754 O1A     21.7942  21.7942  21.7942   O.3      14 RES14   0.0000
  1755 C1      17.5974  20.7465  23.8956   C.2      14 RES14   0.0000
  1756 Zr1     23.2309  20.7465  20.7465   Zr       14 RES14   0.0000
  1757 O2A     24.2782  22.6967  20.7465   O.co2    14 RES14   0.0000
  1758 C2      24.9537  24.9537  20.7465   C.2      14 RES14   0.0000
  1759 C3      24.5917  26.2883  20.7465   C.2      14 RES14   0.0000
  1760 H3      23.6738  26.5327  20.7465   H        14 RES14   0.0000
  1761 O1A     21.7942  19.6988  19.6988   O.3      14 RES14   0.0000
  1762 C1      23.8956  23.8956  20.7465   C.2      14 RES14   0.0000
  1763 O2A     24.2782  18.7963  20.7465   O.co2    14 RES14   0.0000
  1764 C2      24.9537  16.5393  20.7465   C.2      14 RES14   0.0000
  1765 C3      24.5917  15.2047  20.7465   C.2      14 RES14   0.0000
  1766 H3      23.6738  14.9603  20.7465   H        14 RES14   0.0000
  1767 C1      23.8956  17.5974  20.7465   C.2      14 RES14   0.0000
  1768 Zr1     18.2621  20.7465  20.7465   Zr       14 RES14   0.0000
  1769 O2A     17.2148  18.7963  20.7465   O.co2    14 RES14   0.0000
  1770 C2      16.5393  16.5393  20.7465   C.2      14 RES14   0.0000
  1771 C3      16.9013  15.2047  20.7465   C.2      14 RES14   0.0000
  1772 H3      17.8192  14.9603  20.7465   H        14 RES14   0.0000
  1773 O1A     19.6988  21.7942  19.6988   O.3      14 RES14   0.0000
  1774 C1      17.5974  17.5974  20.7465   C.2      14 RES14   0.0000
  1775 O2A     17.2148  22.6967  20.7465   O.co2    14 RES14   0.0000
  1776 C2      16.5393  24.9537  20.7465   C.2      14 RES14   0.0000
  1777 C3      16.9013  26.2883  20.7465   C.2      14 RES14   0.0000
  1778 H3      17.8192  26.5327  20.7465   H        14 RES14   0.0000
  1779 C1      17.5974  23.8956  20.7465   C.2      14 RES14   0.0000
  1780 Zr1     20.7465  23.2309  20.7465   Zr       14 RES14   0.0000
  1781 O2A     20.7465  24.2782  22.6967   O.co2    14 RES14   0.0000
  1782 C2      20.7465  24.9537  24.9537   C.2      14 RES14   0.0000
  1783 C3      20.7465  24.5917  26.2883   C.2      14 RES14   0.0000
  1784 H3      20.7465  23.6738  26.5327   H        14 RES14   0.0000
  1785 C1      20.7465  23.8956  23.8956   C.2      14 RES14   0.0000
  1786 O2A     20.7465  24.2782  18.7963   O.co2    14 RES14   0.0000
  1787 C2      20.7465  24.9537  16.5393   C.2      14 RES14   0.0000
  1788 C3      20.7465  24.5917  15.2047   C.2      14 RES14   0.0000
  1789 H3      20.7465  23.6738  14.9603   H        14 RES14   0.0000
  1790 C1      20.7465  23.8956  17.5974   C.2      14 RES14   0.0000
  1791 Zr1     20.7465  18.2621  20.7465   Zr       14 RES14   0.0000
  1792 O2A     20.7465  17.2148  18.7963   O.co2    14 RES14   0.0000
  1793 C2      20.7465  16.5393  16.5393   C.2      14 RES14   0.0000
  1794 C3      20.7465  16.9013  15.2047   C.2      14 RES14   0.0000
  1795 H3      20.7465  17.8192  14.9603   H        14 RES14   0.0000
  1796 C1      20.7465  17.5974  17.5974   C.2      14 RES14   0.0000
  1797 O2A     20.7465  17.2148  22.6967   O.co2    14 RES14   0.0000
  1798 C2      20.7465  16.5393  24.9537   C.2      14 RES14   0.0000
  1799 C3      20.7465  16.9013  26.2883   C.2      14 RES14   0.0000
  1800 H3      20.7465  17.8192  26.5327   H        14 RES14   0.0000
  1801 C1      20.7465  17.5974  23.8956   C.2      14 RES14   0.0000
  1802 Zr1     20.7465  20.7465  18.2621   Zr       14 RES14   0.0000
  1803 O2A     20.7465  22.6967  17.2148   O.co2    14 RES14   0.0000
  1804 C3      20.7465  26.2883  16.9013   C.2      14 RES14   0.0000
  1805 H3      20.7465  26.5327  17.8192   H        14 RES14   0.0000
  1806 O1A     19.6988  19.6988  19.6988   O.3      14 RES14   0.0000
  1807 O2A     20.7465  18.7963  17.2148   O.co2    14 RES14   0.0000
  1808 C3      20.7465  15.2047  16.9013   C.2      14 RES14   0.0000
  1809 H3      20.7465  14.9603  17.8192   H        14 RES14   0.0000
  1810 O1A     21.7942  21.7942  19.6988   O.3      14 RES14   0.0000
  1811 O2A     20.7465  18.7963  24.2782   O.co2    14 RES14   0.0000
  1812 C3      20.7465  15.2047  24.5917   C.2      14 RES14   0.0000
  1813 H3      20.7465  14.9603  23.6738   H        14 RES14   0.0000
  1814 O1A     19.6988  21.7942  21.7942   O.3      14 RES14   0.0000
  1815 O2A     20.7465  22.6967  24.2782   O.co2    14 RES14   0.0000
  1816 C3      20.7465  26.2883  24.5917   C.2      14 RES14   0.0000
  1817 H3      20.7465  26.5327  23.6738   H        14 RES14   0.0000
  1818 O1A     21.7942  19.6988  21.7942   O.3      14 RES14   0.0000
  1819 O2A     22.6967  24.2782  20.7465   O.co2    14 RES14   0.0000
  1820 C3      26.2883  24.5917  20.7465   C.2      14 RES14   0.0000
  1821 H3      26.5327  23.6738  20.7465   H        14 RES14   0.0000
  1822 O2A     18.7963  24.2782  20.7465   O.co2    14 RES14   0.0000
  1823 C3      15.2047  24.5917  20.7465   C.2      14 RES14   0.0000
  1824 H3      14.9603  23.6738  20.7465   H        14 RES14   0.0000
  1825 O2A     18.7963  17.2148  20.7465   O.co2    14 RES14   0.0000
  1826 C3      15.2047  16.9013  20.7465   C.2      14 RES14   0.0000
  1827 H3      14.9603  17.8192  20.7465   H        14 RES14   0.0000
  1828 O2A     22.6967  17.2148  20.7465   O.co2    14 RES14   0.0000
  1829 C3      26.2883  16.9013  20.7465   C.2      14 RES14   0.0000
  1830 H3      26.5327  17.8192  20.7465   H        14 RES14   0.0000
  1831 O2A     24.2782  20.7465  18.7963   O.co2    14 RES14   0.0000
  1832 C2      24.9537  20.7465  16.5393   C.2      14 RES14   0.0000
  1833 C3      24.5917  20.7465  15.2047   C.2      14 RES14   0.0000
  1834 H3      23.6738  20.7465  14.9603   H        14 RES14   0.0000
  1835 C1      23.8956  20.7465  17.5974   C.2      14 RES14   0.0000
  1836 O2A     24.2782  20.7465  22.6967   O.co2    14 RES14   0.0000
  1837 C3      24.5917  20.7465  26.2883   C.2      14 RES14   0.0000
  1838 H3      23.6738  20.7465  26.5327   H        14 RES14   0.0000
  1839 O2A     17.2148  20.7465  22.6967   O.co2    14 RES14   0.0000
  1840 C3      16.9013  20.7465  26.2883   C.2      14 RES14   0.0000
  1841 H3      17.8192  20.7465  26.5327   H        14 RES14   0.0000
  1842 O2A     17.2148  20.7465  18.7963   O.co2    14 RES14   0.0000
  1843 C2      16.5393  20.7465  16.5393   C.2      14 RES14   0.0000
  1844 C3      16.9013  20.7465  15.2047   C.2      14 RES14   0.0000
  1845 H3      17.8192  20.7465  14.9603   H        14 RES14   0.0000
  1846 C1      17.5974  20.7465  17.5974   C.2      14 RES14   0.0000
  1847 O2A     18.7963  20.7465  17.2148   O.co2    14 RES14   0.0000
  1848 C3      15.2047  20.7465  16.9013   C.2      14 RES14   0.0000
  1849 H3      14.9603  20.7465  17.8192   H        14 RES14   0.0000
  1850 O2A     22.6967  20.7465  17.2148   O.co2    14 RES14   0.0000
  1851 C3      26.2883  20.7465  16.9013   C.2      14 RES14   0.0000
  1852 H3      26.5327  20.7465  17.8192   H        14 RES14   0.0000
  1853 C3      20.7465  14.2184  15.9151   C.2      14 RES14   0.0000
  1854 C3      20.7465  14.2184  25.5779   C.2      14 RES14   0.0000
  1855 C3      20.7465  27.2746  25.5779   C.2      14 RES14   0.0000
  1856 C3      20.7465  27.2746  15.9151   C.2      14 RES14   0.0000
  1857 C3      20.7465  15.9151  27.2746   C.2      14 RES14   0.0000
  1858 C3      20.7465  25.5779  27.2746   C.2      14 RES14   0.0000
  1859 C3      20.7465  25.5779  14.2184   C.2      14 RES14   0.0000
  1860 C3      20.7465  15.9151  14.2184   C.2      14 RES14   0.0000
  1861 C3      15.9151  20.7465  14.2184   C.2      14 RES14   0.0000
  1862 C3      25.5779  20.7465  14.2184   C.2      14 RES14   0.0000
  1863 C3      25.5779  20.7465  27.2746   C.2      14 RES14   0.0000
  1864 C3      15.9151  20.7465  27.2746   C.2      14 RES14   0.0000
  1865 C3      14.2184  20.7465  25.5779   C.2      14 RES14   0.0000
  1866 C3      14.2184  20.7465  15.9151   C.2      14 RES14   0.0000
  1867 C3      27.2746  20.7465  15.9151   C.2      14 RES14   0.0000
  1868 C3      27.2746  20.7465  25.5779   C.2      14 RES14   0.0000
  1869 C3      14.2184  15.9151  20.7465   C.2      14 RES14   0.0000
  1870 C3      14.2184  25.5779  20.7465   C.2      14 RES14   0.0000
  1871 C3      27.2746  25.5779  20.7465   C.2      14 RES14   0.0000
  1872 C3      27.2746  15.9151  20.7465   C.2      14 RES14   0.0000
  1873 C3      15.9151  14.2184  20.7465   C.2      14 RES14   0.0000
  1874 C3      25.5779  14.2184  20.7465   C.2      14 RES14   0.0000
  1875 C3      25.5779  27.2746  20.7465   C.2      14 RES14   0.0000
  1876 C3      15.9151  27.2746  20.7465   C.2      14 RES14   0.0000
  1877 Zr1     20.7465  20.7465  43.9774   Zr       15 RES15   0.0000
  1878 O2A     22.6967  20.7465  45.0247   O.co2    15 RES15   0.0000
  1879 C2      24.9537  20.7465  45.7002   C.2      15 RES15   0.0000
  1880 C3      26.2883  20.7465  45.3382   C.2      15 RES15   0.0000
  1881 H3      26.5327  20.7465  44.4203   H        15 RES15   0.0000
  1882 O1A     19.6988  19.6988  42.5407   O.3      15 RES15   0.0000
  1883 C1      23.8956  20.7465  44.6421   C.2      15 RES15   0.0000
  1884 O2A     18.7963  20.7465  45.0247   O.co2    15 RES15   0.0000
  1885 C2      16.5393  20.7465  45.7002   C.2      15 RES15   0.0000
  1886 C3      15.2047  20.7465  45.3382   C.2      15 RES15   0.0000
  1887 H3      14.9603  20.7465  44.4203   H        15 RES15   0.0000
  1888 O1A     21.7942  21.7942  42.5407   O.3      15 RES15   0.0000
  1889 C1      17.5974  20.7465  44.6421   C.2      15 RES15   0.0000
  1890 Zr1     23.2309  20.7465  41.4930   Zr       15 RES15   0.0000
  1891 O2A     24.2782  22.6967  41.4930   O.co2    15 RES15   0.0000
  1892 C2      24.9537  24.9537  41.4930   C.2      15 RES15   0.0000
  1893 C3      24.5917  26.2883  41.4930   C.2      15 RES15   0.0000
  1894 H3      23.6738  26.5327  41.4930   H        15 RES15   0.0000
  1895 O1A     21.7942  19.6988  40.4453   O.3      15 RES15   0.0000
  1896 C1      23.8956  23.8956  41.4930   C.2      15 RES15   0.0000
  1897 O2A     24.2782  18.7963  41.4930   O.co2    15 RES15   0.0000
  1898 C2      24.9537  16.5393  41.4930   C.2      15 RES15   0.0000
  1899 C3      24.5917  15.2047  41.4930   C.2      15 RES15   0.0000
  1900 H3      23.6738  14.9603  41.4930   H        15 RES15   0.0000
  1901 C1      23.8956  17.5974  41.4930   C.2      15 RES15   0.0000
  1902 Zr1     18.2621  20.7465  41.4930   Zr       15 RES15   0.0000
  1903 O2A     17.2148  18.7963  41.4930   O.co2    15 RES15   0.0000
  1904 C2      16.5393  16.5393  41.4930   C.2      15 RES15   0.0000
  1905 C3      16.9013  15.2047  41.4930   C.2      15 RES15   0.0000
  1906 H3      17.8192  14.9603  41.4930   H        15 RES15   0.0000
  1907 O1A     19.6988  21.7942  40.4453   O.3      15 RES15   0.0000
  1908 C1      17.5974  17.5974  41.4930   C.2      15 RES15   0.0000
  1909 O2A     17.2148  22.6967  41.4930   O.co2    15 RES15   0.0000
  1910 C2      16.5393  24.9537  41.4930   C.2      15 RES15   0.0000
  1911 C3      16.9013  26.2883  41.4930   C.2      15 RES15   0.0000
  1912 H3      17.8192  26.5327  41.4930   H        15 RES15   0.0000
  1913 C1      17.5974  23.8956  41.4930   C.2      15 RES15   0.0000
  1914 Zr1     20.7465  23.2309  41.4930   Zr       15 RES15   0.0000
  1915 O2A     20.7465  24.2782  43.4432   O.co2    15 RES15   0.0000
  1916 C2      20.7465  24.9537  45.7002   C.2      15 RES15   0.0000
  1917 C3      20.7465  24.5917  47.0348   C.2      15 RES15   0.0000
  1918 H3      20.7465  23.6738  47.2792   H        15 RES15   0.0000
  1919 C1      20.7465  23.8956  44.6421   C.2      15 RES15   0.0000
  1920 O2A     20.7465  24.2782  39.5428   O.co2    15 RES15   0.0000
  1921 C2      20.7465  24.9537  37.2858   C.2      15 RES15   0.0000
  1922 C3      20.7465  24.5917  35.9512   C.2      15 RES15   0.0000
  1923 H3      20.7465  23.6738  35.7068   H        15 RES15   0.0000
  1924 C1      20.7465  23.8956  38.3439   C.2      15 RES15   0.0000
  1925 Zr1     20.7465  18.2621  41.4930   Zr       15 RES15   0.0000
  1926 O2A     20.7465  17.2148  39.5428   O.co2    15 RES15   0.0000
  1927 C2      20.7465  16.5393  37.2858   C.2      15 RES15   0.0000
  1928 C3      20.7465  16.9013  35.9512   C.2      15 RES15   0.0000
  1929 H3      20.7465  17.8192  35.7068   H        15 RES15   0.0000
  1930 C1      20.7465  17.5974  38.3439   C.2      15 RES15   0.0000
  1931 O2A     20.7465  17.2148  43.4432   O.co2    15 RES15   0.0000
  1932 C2      20.7465  16.5393  45.7002   C.2      15 RES15   0.0000
  1933 C3      20.7465  16.9013  47.0348   C.2      15 RES15   0.0000
  1934 H3      20.7465  17.8192  47.2792   H        15 RES15   0.0000
  1935 C1      20.7465  17.5974  44.6421   C.2      15 RES15   0.0000
  1936 Zr1     20.7465  20.7465  39.0086   Zr       15 RES15   0.0000
  1937 O2A     20.7465  22.6967  37.9613   O.co2    15 RES15   0.0000
  1938 C3      20.7465  26.2883  37.6478   C.2      15 RES15   0.0000
  1939 H3      20.7465  26.5327  38.5657   H        15 RES15   0.0000
  1940 O1A     19.6988  19.6988  40.4453   O.3      15 RES15   0.0000
  1941 O2A     20.7465  18.7963  37.9613   O.co2    15 RES15   0.0000
  1942 C3      20.7465  15.2047  37.6478   C.2      15 RES15   0.0000
  1943 H3      20.7465  14.9603  38.5657   H        15 RES15   0.0000
  1944 O1A     21.7942  21.7942  40.4453   O.3      15 RES15   0.0000
  1945 O2A     20.7465  18.7963  45.0247   O.co2    15 RES15   0.0000
  1946 C3      20.7465  15.2047  45.3382   C.2      15 RES15   0.0000
  1947 H3      20.7465  14.9603  44.4203   H        15 RES15   0.0000
  1948 O1A     19.6988  21.7942  42.5407   O.3      15 RES15   0.0000
  1949 O2A     20.7465  22.6967  45.0247   O.co2    15 RES15   0.0000
  1950 C3      20.7465  26.2883  45.3382   C.2      15 RES15   0.0000
  1951 H3      20.7465  26.5327  44.4203   H        15 RES15   0.0000
  1952 O1A     21.7942  19.6988  42.5407   O.3      15 RES15   0.0000
  1953 O2A     22.6967  24.2782  41.4930   O.co2    15 RES15   0.0000
  1954 C3      26.2883  24.5917  41.4930   C.2      15 RES15   0.0000
  1955 H3      26.5327  23.6738  41.4930   H        15 RES15   0.0000
  1956 O2A     18.7963  24.2782  41.4930   O.co2    15 RES15   0.0000
  1957 C3      15.2047  24.5917  41.4930   C.2      15 RES15   0.0000
  1958 H3      14.9603  23.6738  41.4930   H        15 RES15   0.0000
  1959 O2A     18.7963  17.2148  41.4930   O.co2    15 RES15   0.0000
  1960 C3      15.2047  16.9013  41.4930   C.2      15 RES15   0.0000
  1961 H3      14.9603  17.8192  41.4930   H        15 RES15   0.0000
  1962 O2A     22.6967  17.2148  41.4930   O.co2    15 RES15   0.0000
  1963 C3      26.2883  16.9013  41.4930   C.2      15 RES15   0.0000
  1964 H3      26.5327  17.8192  41.4930   H        15 RES15   0.0000
  1965 O2A     24.2782  20.7465  39.5428   O.co2    15 RES15   0.0000
  1966 C2      24.9537  20.7465  37.2858   C.2      15 RES15   0.0000
  1967 C3      24.5917  20.7465  35.9512   C.2      15 RES15   0.0000
  1968 H3      23.6738  20.7465  35.7068   H        15 RES15   0.0000
  1969 C1      23.8956  20.7465  38.3439   C.2      15 RES15   0.0000
  1970 O2A     24.2782  20.7465  43.4432   O.co2    15 RES15   0.0000
  1971 C3      24.5917  20.7465  47.0348   C.2      15 RES15   0.0000
  1972 H3      23.6738  20.7465  47.2792   H        15 RES15   0.0000
  1973 O2A     17.2148  20.7465  43.4432   O.co2    15 RES15   0.0000
  1974 C3      16.9013  20.7465  47.0348   C.2      15 RES15   0.0000
  1975 H3      17.8192  20.7465  47.2792   H        15 RES15   0.0000
  1976 O2A     17.2148  20.7465  39.5428   O.co2    15 RES15   0.0000
  1977 C2      16.5393  20.7465  37.2858   C.2      15 RES15   0.0000
  1978 C3      16.9013  20.7465  35.9512   C.2      15 RES15   0.0000
  1979 H3      17.8192  20.7465  35.7068   H        15 RES15   0.0000
  1980 C1      17.5974  20.7465  38.3439   C.2      15 RES15   0.0000
  1981 O2A     18.7963  20.7465  37.9613   O.co2    15 RES15   0.0000
  1982 C3      15.2047  20.7465  37.6478   C.2      15 RES15   0.0000
  1983 H3      14.9603  20.7465  38.5657   H        15 RES15   0.0000
  1984 O2A     22.6967  20.7465  37.9613   O.co2    15 RES15   0.0000
  1985 C3      26.2883  20.7465  37.6478   C.2      15 RES15   0.0000
  1986 H3      26.5327  20.7465  38.5657   H        15 RES15   0.0000
  1987 C3      20.7465  14.2184  36.6616   C.2      15 RES15   0.0000
  1988 C3      20.7465  14.2184  46.3244   C.2      15 RES15   0.0000
  1989 C3      20.7465  27.2746  46.3244   C.2      15 RES15   0.0000
  1990 C3      20.7465  27.2746  36.6616   C.2      15 RES15   0.0000
  1991 C3      20.7465  15.9151  48.0211   C.2      15 RES15   0.0000
  1992 C3      20.7465  25.5779  48.0211   C.2      15 RES15   0.0000
  1993 C3      20.7465  25.5779  34.9649   C.2      15 RES15   0.0000
  1994 C3      20.7465  15.9151  34.9649   C.2      15 RES15   0.0000
  1995 C3      15.9151  20.7465  34.9649   C.2      15 RES15   0.0000
  1996 C3      25.5779  20.7465  34.9649   C.2      15 RES15   0.0000
  1997 C3      25.5779  20.7465  48.0211   C.2      15 RES15   0.0000
  1998 C3      15.9151  20.7465  48.0211   C.2      15 RES15   0.0000
  1999 C3      14.2184  20.7465  46.3244   C.2      15 RES15   0.0000
  2000 C3      14.2184  20.7465  36.6616   C.2      15 RES15   0.0000
  2001 C3      27.2746  20.7465  36.6616   C.2      15 RES15   0.0000
  2002 C3      27.2746  20.7465  46.3244   C.2      15 RES15   0.0000
  2003 C3      14.2184  15.9151  41.4930   C.2      15 RES15   0.0000
  2004 C3      14.2184  25.5779  41.4930   C.2      15 RES15   0.0000
  2005 C3      27.2746  25.5779  41.4930   C.2      15 RES15   0.0000
  2006 C3      27.2746  15.9151  41.4930   C.2      15 RES15   0.0000
  2007 C3      15.9151  14.2184  41.4930   C.2      15 RES15   0.0000
  2008 C3      25.5779  14.2184  41.4930   C.2      15 RES15   0.0000
  2009 C3      25.5779  27.2746  41.4930   C.2      15 RES15   0.0000
  2010 C3      15.9151  27.2746  41.4930   C.2      15 RES15   0.0000
  2011 Zr1     20.7465  41.4930   2.4844   Zr       16 RES16   0.0000
  2012 O2A     22.6967  41.4930   3.5317   O.co2    16 RES16   0.0000
  2013 C2      24.9537  41.4930   4.2072   C.2      16 RES16   0.0000
  2014 C3      26.2883  41.4930   3.8452   C.2      16 RES16   0.0000
  2015 H3      26.5327  41.4930   2.9273   H        16 RES16   0.0000
  2016 O1A     19.6988  40.4453   1.0477   O.3      16 RES16   0.0000
  2017 C1      23.8956  41.4930   3.1491   C.2      16 RES16   0.0000
  2018 O2A     18.7963  41.4930   3.5317   O.co2    16 RES16   0.0000
  2019 C2      16.5393  41.4930   4.2072   C.2      16 RES16   0.0000
  2020 C3      15.2047  41.4930   3.8452   C.2      16 RES16   0.0000
  2021 H3      14.9603  41.4930   2.9273   H        16 RES16   0.0000
  2022 O1A     21.7942  42.5407   1.0477   O.3      16 RES16   0.0000
  2023 C1      17.5974  41.4930   3.1491   C.2      16 RES16   0.0000
  2024 Zr1     23.2309  41.4930   0.0000   Zr       16 RES16   0.0000
  2025 O2A     24.2782  43.4432   0.0000   O.co2    16 RES16   0.0000
  2026 C2      24.9537  45.7002   0.0000   C.2      16 RES16   0.0000
  2027 C3      24.5917  47.0348   0.0000   C.2      16 RES16   0.0000
  2028 H3      23.6738  47.2792   0.0000   H        16 RES16   0.0000
  2029 O1A     21.7942  40.4453  -1.0477   O.3      16 RES16   0.0000
  2030 C1      23.8956  44.6421   0.0000   C.2      16 RES16   0.0000
  2031 O2A     24.2782  39.5428   0.0000   O.co2    16 RES16   0.0000
  2032 C2      24.9537  37.2858   0.0000   C.2      16 RES16   0.0000
  2033 C3      24.5917  35.9512   0.0000   C.2      16 RES16   0.0000
  2034 H3      23.6738  35.7068   0.0000   H        16 RES16   0.0000
  2035 C1      23.8956  38.3439   0.0000   C.2      16 RES16   0.0000
  2036 Zr1     18.2621  41.4930   0.0000   Zr       16 RES16   0.0000
  2037 O2A     17.2148  39.5428   0.0000   O.co2    16 RES16   0.0000
  2038 C2      16.5393  37.2858   0.0000   C.2      16 RES16   0.0000
  2039 C3      16.9013  35.9512   0.0000   C.2      16 RES16   0.0000
  2040 H3      17.8192  35.7068   0.0000   H        16 RES16   0.0000
  2041 O1A     19.6988  42.5407  -1.0477   O.3      16 RES16   0.0000
  2042 C1      17.5974  38.3439   0.0000   C.2      16 RES16   0.0000
  2043 O2A     17.2148  43.4432   0.0000   O.co2    16 RES16   0.0000
  2044 C2      16.5393  45.7002   0.0000   C.2      16 RES16   0.0000
  2045 C3      16.9013  47.0348   0.0000   C.2      16 RES16   0.0000
  2046 H3      17.8192  47.2792   0.0000   H        16 RES16   0.0000
  2047 C1      17.5974  44.6421   0.0000   C.2      16 RES16   0.0000
  2048 Zr1     20.7465  43.9774   0.0000   Zr       16 RES16   0.0000
  2049 O2A     20.7465  45.0247   1.9502   O.co2    16 RES16   0.0000
  2050 C2      20.7465  45.7002   4.2072   C.2      16 RES16   0.0000
  2051 C3      20.7465  45.3382   5.5418   C.2      16 RES16   0.0000
  2052 H3      20.7465  44.4203   5.7862   H        16 RES16   0.0000
  2053 C1      20.7465  44.6421   3.1491   C.2      16 RES16   0.0000
  2054 O2A     20.7465  45.0247  -1.9502   O.co2    16 RES16   0.0000
  2055 C2      20.7465  45.7002  -4.2072   C.2      16 RES16   0.0000
  2056 C3      20.7465  45.3382  -5.5418   C.2      16 RES16   0.0000
  2057 H3      20.7465  44.4203  -5.7862   H        16 RES16   0.0000
  2058 C1      20.7465  44.6421  -3.1491   C.2      16 RES16   0.0000
  2059 Zr1     20.7465  39.0086   0.0000   Zr       16 RES16   0.0000
  2060 O2A     20.7465  37.9613  -1.9502   O.co2    16 RES16   0.0000
  2061 C2      20.7465  37.2858  -4.2072   C.2      16 RES16   0.0000
  2062 C3      20.7465  37.6478  -5.5418   C.2      16 RES16   0.0000
  2063 H3      20.7465  38.5657  -5.7862   H        16 RES16   0.0000
  2064 C1      20.7465  38.3439  -3.1491   C.2      16 RES16   0.0000
  2065 O2A     20.7465  37.9613   1.9502   O.co2    16 RES16   0.0000
  2066 C2      20.7465  37.2858   4.2072   C.2      16 RES16   0.0000
  2067 C3      20.7465  37.6478   5.5418   C.2      16 RES16   0.0000
  2068 H3      20.7465  38.5657   5.7862   H        16 RES16   0.0000
  2069 C1      20.7465  38.3439   3.1491   C.2      16 RES16   0.0000
  2070 Zr1     20.7465  41.4930  -2.4844   Zr       16 RES16   0.0000
  2071 O2A     20.7465  43.4432  -3.5317   O.co2    16 RES16   0.0000
  2072 C3      20.7465  47.0348  -3.8452   C.2      16 RES16   0.0000
  2073 H3      20.7465  47.2792  -2.9273   H        16 RES16   0.0000
  2074 O1A     19.6988  40.4453  -1.0477   O.3      16 RES16   0.0000
  2075 O2A     20.7465  39.5428  -3.5317   O.co2    16 RES16   0.0000
  2076 C3      20.7465  35.9512  -3.8452   C.2      16 RES16   0.0000
  2077 H3      20.7465  35.7068  -2.9273   H        16 RES16   0.0000
  2078 O1A     21.7942  42.5407  -1.0477   O.3      16 RES16   0.0000
  2079 O2A     20.7465  39.5428   3.5317   O.co2    16 RES16   0.0000
  2080 C3      20.7465  35.9512   3.8452   C.2      16 RES16   0.0000
  2081 H3      20.7465  35.7068   2.9273   H        16 RES16   0.0000
  2082 O1A     19.6988  42.5407   1.0477   O.3      16 RES16   0.0000
  2083 O2A     20.7465  43.4432   3.5317   O.co2    16 RES16   0.0000
  2084 C3      20.7465  47.0348   3.8452   C.2      16 RES16   0.0000
  2085 H3      20.7465  47.2792   2.9273   H        16 RES16   0.0000
  2086 O1A     21.7942  40.4453   1.0477   O.3      16 RES16   0.0000
  2087 O2A     22.6967  45.0247   0.0000   O.co2    16 RES16   0.0000
  2088 C3      26.2883  45.3382   0.0000   C.2      16 RES16   0.0000
  2089 H3      26.5327  44.4203   0.0000   H        16 RES16   0.0000
  2090 O2A     18.7963  45.0247   0.0000   O.co2    16 RES16   0.0000
  2091 C3      15.2047  45.3382   0.0000   C.2      16 RES16   0.0000
  2092 H3      14.9603  44.4203   0.0000   H        16 RES16   0.0000
  2093 O2A     18.7963  37.9613   0.0000   O.co2    16 RES16   0.0000
  2094 C3      15.2047  37.6478   0.0000   C.2      16 RES16   0.0000
  2095 H3      14.9603  38.5657   0.0000   H        16 RES16   0.0000
  2096 O2A     22.6967  37.9613   0.0000   O.co2    16 RES16   0.0000
  2097 C3      26.2883  37.6478   0.0000   C.2      16 RES16   0.0000
  2098 H3      26.5327  38.5657   0.0000   H        16 RES16   0.0000
  2099 O2A     24.2782  41.4930  -1.9502   O.co2    16 RES16   0.0000
  2100 C2      24.9537  41.4930  -4.2072   C.2      16 RES16   0.0000
  2101 C3      24.5917  41.4930  -5.5418   C.2      16 RES16   0.0000
  2102 H3      23.6738  41.4930  -5.7862   H        16 RES16   0.0000
  2103 C1      23.8956  41.4930  -3.1491   C.2      16 RES16   0.0000
  2104 O2A     24.2782  41.4930   1.9502   O.co2    16 RES16   0.0000
  2105 C3      24.5917  41.4930   5.5418   C.2      16 RES16   0.0000
  2106 H3      23.6738  41.4930   5.7862   H        16 RES16   0.0000
  2107 O2A     17.2148  41.4930   1.9502   O.co2    16 RES16   0.0000
  2108 C3      16.9013  41.4930   5.5418   C.2      16 RES16   0.0000
  2109 H3      17.8192  41.4930   5.7862   H        16 RES16   0.0000
  2110 O2A     17.2148  41.4930  -1.9502   O.co2    16 RES16   0.0000
  2111 C2      16.5393  41.4930  -4.2072   C.2      16 RES16   0.0000
  2112 C3      16.9013  41.4930  -5.5418   C.2      16 RES16   0.0000
  2113 H3      17.8192  41.4930  -5.7862   H        16 RES16   0.0000
  2114 C1      17.5974  41.4930  -3.1491   C.2      16 RES16   0.0000
  2115 O2A     18.7963  41.4930  -3.5317   O.co2    16 RES16   0.0000
  2116 C3      15.2047  41.4930  -3.8452   C.2      16 RES16   0.0000
  2117 H3      14.9603  41.4930  -2.9273   H        16 RES16   0.0000
  2118 O2A     22.6967  41.4930  -3.5317   O.co2    16 RES16   0.0000
  2119 C3      26.2883  41.4930  -3.8452   C.2      16 RES16   0.0000
  2120 H3      26.5327  41.4930  -2.9273   H        16 RES16   0.0000
  2121 C3      20.7465  34.9649  -4.8314   C.2      16 RES16   0.0000
  2122 C3      20.7465  34.9649   4.8314   C.2      16 RES16   0.0000
  2123 C3      20.7465  48.0211   4.8314   C.2      16 RES16   0.0000
  2124 C3      20.7465  48.0211  -4.8314   C.2      16 RES16   0.0000
  2125 C3      20.7465  36.6616   6.5281   C.2      16 RES16   0.0000
  2126 C3      20.7465  46.3244   6.5281   C.2      16 RES16   0.0000
  2127 C3      20.7465  46.3244  -6.5281   C.2      16 RES16   0.0000
  2128 C3      20.7465  36.6616  -6.5281   C.2      16 RES16   0.0000
  2129 C3      15.9151  41.4930  -6.5281   C.2      16 RES16   0.0000
  2130 C3      25.5779  41.4930  -6.5281   C.2      16 RES16   0.0000
  2131 C3      25.5779  41.4930   6.5281   C.2      16 RES16   0.0000
  2132 C3      15.9151  41.4930   6.5281   C.2      16 RES16   0.0000
  2133 C3      14.2184  41.4930   4.8314   C.2      16 RES16   0.0000
  2134 C3      14.2184  41.4930  -4.8314   C.2      16 RES16   0.0000
  2135 C3      27.2746  41.4930  -4.8314   C.2      16 RES16   0.0000
  2136 C3      27.2746  41.4930   4.8314   C.2      16 RES16   0.0000
  2137 C3      14.2184  36.6616   0.0000   C.2      16 RES16   0.0000
  2138 C3      14.2184  46.3244   0.0000   C.2      16 RES16   0.0000
  2139 C3      27.2746  46.3244   0.0000   C.2      16 RES16   0.0000
  2140 C3      27.2746  36.6616   0.0000   C.2      16 RES16   0.0000
  2141 C3      15.9151  34.9649   0.0000   C.2      16 RES16   0.0000
  2142 C3      25.5779  34.9649   0.0000   C.2      16 RES16   0.0000
  2143 C3      25.5779  48.0211   0.0000   C.2      16 RES16   0.0000
  2144 C3      15.9151  48.0211   0.0000   C.2      16 RES16   0.0000
  2145 Zr1     20.7465  41.4930  23.2309   Zr       17 RES17   0.0000
  2146 O2A     22.6967  41.4930  24.2782   O.co2    17 RES17   0.0000
  2147 C2      24.9537  41.4930  24.9537   C.2      17 RES17   0.0000
  2148 C3      26.2883  41.4930  24.5917   C.2      17 RES17   0.0000
  2149 H3      26.5327  41.4930  23.6738   H        17 RES17   0.0000
  2150 O1A     19.6988  40.4453  21.7942   O.3      17 RES17   0.0000
  2151 C1      23.8956  41.4930  23.8956   C.2      17 RES17   0.0000
  2152 O2A     18.7963  41.4930  24.2782   O.co2    17 RES17   0.0000
  2153 C2      16.5393  41.4930  24.9537   C.2      17 RES17   0.0000
  2154 C3      15.2047  41.4930  24.5917   C.2      17 RES17   0.0000
  2155 H3      14.9603  41.4930  23.6738   H        17 RES17   0.0000
  2156 O1A     21.7942  42.5407  21.7942   O.3      17 RES17   0.0000
  2157 C1      17.5974  41.4930  23.8956   C.2      17 RES17   0.0000
  2158 Zr1     23.2309  41.4930  20.7465   Zr       17 RES17   0.0000
  2159 O2A     24.2782  43.4432  20.7465   O.co2    17 RES17   0.0000
  2160 C2      24.9537  45.7002  20.7465   C.2      17 RES17   0.0000
  2161 C3      24.5917  47.0348  20.7465   C.2      17 RES17   0.0000
  2162 H3      23.6738  47.2792  20.7465   H        17 RES17   0.0000
  2163 O1A     21.7942  40.4453  19.6988   O.3      17 RES17   0.0000
  2164 C1      23.8956  44.6421  20.7465   C.2      17 RES17   0.0000
  2165 O2A     24.2782  39.5428  20.7465   O.co2    17 RES17   0.0000
  2166 C2      24.9537  37.2858  20.7465   C.2      17 RES17   0.0000
  2167 C3      24.5917  35.9512  20.7465   C.2      17 RES17   0.0000
  2168 H3      23.6738  35.7068  20.7465   H        17 RES17   0.0000
  2169 C1      23.8956  38.3439  20.7465   C.2      17 RES17   0.0000
  2170 Zr1     18.2621  41.4930  20.7465   Zr       17 RES17   0.0000
  2171 O2A     17.2148  39.5428  20.7465   O.co2    17 RES17   0.0000
  2172 C2      16.5393  37.2858  20.7465   C.2      17 RES17   0.0000
  2173 C3      16.9013  35.9512  20.7465   C.2      17 RES17   0.0000
  2174 H3      17.8192  35.7068  20.7465   H        17 RES17   0.0000
  2175 O1A     19.6988  42.5407  19.6988   O.3      17 RES17   0.0000
  2176 C1      17.5974  38.3439  20.7465   C.2      17 RES17   0.0000
  2177 O2A     17.2148  43.4432  20.7465   O.co2    17 RES17   0.0000
  2178 C2      16.5393  45.7002  20.7465   C.2      17 RES17   0.0000
  2179 C3      16.9013  47.0348  20.7465   C.2      17 RES17   0.0000
  2180 H3      17.8192  47.2792  20.7465   H        17 RES17   0.0000
  2181 C1      17.5974  44.6421  20.7465   C.2      17 RES17   0.0000
  2182 Zr1     20.7465  43.9774  20.7465   Zr       17 RES17   0.0000
  2183 O2A     20.7465  45.0247  22.6967   O.co2    17 RES17   0.0000
  2184 C2      20.7465  45.7002  24.9537   C.2      17 RES17   0.0000
  2185 C3      20.7465  45.3382  26.2883   C.2      17 RES17   0.0000
  2186 H3      20.7465  44.4203  26.5327   H        17 RES17   0.0000
  2187 C1      20.7465  44.6421  23.8956   C.2      17 RES17   0.0000
  2188 O2A     20.7465  45.0247  18.7963   O.co2    17 RES17   0.0000
  2189 C2      20.7465  45.7002  16.5393   C.2      17 RES17   0.0000
  2190 C3      20.7465  45.3382  15.2047   C.2      17 RES17   0.0000
  2191 H3      20.7465  44.4203  14.9603   H        17 RES17   0.0000
  2192 C1      20.7465  44.6421  17.5974   C.2      17 RES17   0.0000
  2193 Zr1     20.7465  39.0086  20.7465   Zr       17 RES17   0.0000
  2194 O2A     20.7465  37.9613  18.7963   O.co2    17 RES17   0.0000
  2195 C2      20.7465  37.2858  16.5393   C.2      17 RES17   0.0000
  2196 C3      20.7465  37.6478  15.2047   C.2      17 RES17   0.0000
  2197 H3      20.7465  38.5657  14.9603   H        17 RES17   0.0000
  2198 C1      20.7465  38.3439  17.5974   C.2      17 RES17   0.0000
  2199 O2A     20.7465  37.9613  22.6967   O.co2    17 RES17   0.0000
  2200 C2      20.7465  37.2858  24.9537   C.2      17 RES17   0.0000
  2201 C3      20.7465  37.6478  26.2883   C.2      17 RES17   0.0000
  2202 H3      20.7465  38.5657  26.5327   H        17 RES17   0.0000
  2203 C1      20.7465  38.3439  23.8956   C.2      17 RES17   0.0000
  2204 Zr1     20.7465  41.4930  18.2621   Zr       17 RES17   0.0000
  2205 O2A     20.7465  43.4432  17.2148   O.co2    17 RES17   0.0000
  2206 C3      20.7465  47.0348  16.9013   C.2      17 RES17   0.0000
  2207 H3      20.7465  47.2792  17.8192   H        17 RES17   0.0000
  2208 O1A     19.6988  40.4453  19.6988   O.3      17 RES17   0.0000
  2209 O2A     20.7465  39.5428  17.2148   O.co2    17 RES17   0.0000
  2210 C3      20.7465  35.9512  16.9013   C.2      17 RES17   0.0000
  2211 H3      20.7465  35.7068  17.8192   H        17 RES17   0.0000
  2212 O1A     21.7942  42.5407  19.6988   O.3      17 RES17   0.0000
  2213 O2A     20.7465  39.5428  24.2782   O.co2    17 RES17   0.0000
  2214 C3      20.7465  35.9512  24.5917   C.2      17 RES17   0.0000
  2215 H3      20.7465  35.7068  23.6738   H        17 RES17   0.0000
  2216 O1A     19.6988  42.5407  21.7942   O.3      17 RES17   0.0000
  2217 O2A     20.7465  43.4432  24.2782   O.co2    17 RES17   0.0000
  2218 C3      20.7465  47.0348  24.5917   C.2      17 RES17   0.0000
  2219 H3      20.7465  47.2792  23.6738   H        17 RES17   0.0000
  2220 O1A     21.7942  40.4453  21.7942   O.3      17 RES17   0.0000
  2221 O2A     22.6967  45.0247  20.7465   O.co2    17 RES17   0.0000
  2222 C3      26.2883  45.3382  20.7465   C.2      17 RES17   0.0000
  2223 H3      26.5327  44.4203  20.7465   H        17 RES17   0.0000
  2224 O2A     18.7963  45.0247  20.7465   O.co2    17 RES17   0.0000
  2225 C3      15.2047  45.3382  20.7465   C.2      17 RES17   0.0000
  2226 H3      14.9603  44.4203  20.7465   H        17 RES17   0.0000
  2227 O2A     18.7963  37.9613  20.7465   O.co2    17 RES17   0.0000
  2228 C3      15.2047  37.6478  20.7465   C.2      17 RES17   0.0000
  2229 H3      14.9603  38.5657  20.7465   H        17 RES17   0.0000
  2230 O2A     22.6967  37.9613  20.7465   O.co2    17 RES17   0.0000
  2231 C3      26.2883  37.6478  20.7465   C.2      17 RES17   0.0000
  2232 H3      26.5327  38.5657  20.7465   H        17 RES17   0.0000
  2233 O2A     24.2782  41.4930  18.7963   O.co2    17 RES17   0.0000
  2234 C2      24.9537  41.4930  16.5393   C.2      17 RES17   0.0000
  2235 C3      24.5917  41.4930  15.2047   C.2      17 RES17   0.0000
  2236 H3      23.6738  41.4930  14.9603   H        17 RES17   0.0000
  2237 C1      23.8956  41.4930  17.5974   C.2      17 RES17   0.0000
  2238 O2A     24.2782  41.4930  22.6967   O.co2    17 RES17   0.0000
  2239 C3      24.5917  41.4930  26.2883   C.2      17 RES17   0.0000
  2240 H3      23.6738  41.4930  26.5327   H        17 RES17   0.0000
  2241 O2A     17.2148  41.4930  22.6967   O.co2    17 RES17   0.0000
  2242 C3      16.9013  41.4930  26.2883   C.2      17 RES17   0.0000
  2243 H3      17.8192  41.4930  26.5327   H        17 RES17   0.0000
  2244 O2A     17.2148  41.4930  18.7963   O.co2    17 RES17   0.0000
  2245 C2      16.5393  41.4930  16.5393   C.2      17 RES17   0.0000
  2246 C3      16.9013  41.4930  15.2047   C.2      17 RES17   0.0000
  2247 H3      17.8192  41.4930  14.9603   H        17 RES17   0.0000
  2248 C1      17.5974  41.4930  17.5974   C.2      17 RES17   0.0000
  2249 O2A     18.7963  41.4930  17.2148   O.co2    17 RES17   0.0000
  2250 C3      15.2047  41.4930  16.9013   C.2      17 RES17   0.0000
  2251 H3      14.9603  41.4930  17.8192   H        17 RES17   0.0000
  2252 O2A     22.6967  41.4930  17.2148   O.co2    17 RES17   0.0000
  2253 C3      26.2883  41.4930  16.9013   C.2      17 RES17   0.0000
  2254 H3      26.5327  41.4930  17.8192   H        17 RES17   0.0000
  2255 C3      20.7465  34.9649  15.9151   C.2      17 RES17   0.0000
  2256 C3      20.7465  34.9649  25.5779   C.2      17 RES17   0.0000
  2257 C3      20.7465  48.0211  25.5779   C.2      17 RES17   0.0000
  2258 C3      20.7465  48.0211  15.9151   C.2      17 RES17   0.0000
  2259 C3      20.7465  36.6616  27.2746   C.2      17 RES17   0.0000
  2260 C3      20.7465  46.3244  27.2746   C.2      17 RES17   0.0000
  2261 C3      20.7465  46.3244  14.2184   C.2      17 RES17   0.0000
  2262 C3      20.7465  36.6616  14.2184   C.2      17 RES17   0.0000
  2263 C3      15.9151  41.4930  14.2184   C.2      17 RES17   0.0000
  2264 C3      25.5779  41.4930  14.2184   C.2      17 RES17   0.0000
  2265 C3      25.5779  41.4930  27.2746   C.2      17 RES17   0.0000
  2266 C3      15.9151  41.4930  27.2746   C.2      17 RES17   0.0000
  2267 C3      14.2184  41.4930  25.5779   C.2      17 RES17   0.0000
  2268 C3      14.2184  41.4930  15.9151   C.2      17 RES17   0.0000
  2269 C3      27.2746  41.4930  15.9151   C.2      17 RES17   0.0000
  2270 C3      27.2746  41.4930  25.5779   C.2      17 RES17   0.0000
  2271 C3      14.2184  36.6616  20.7465   C.2      17 RES17   0.0000
  2272 C3      14.2184  46.3244  20.7465   C.2      17 RES17   0.0000
  2273 C3      27.2746  46.3244  20.7465   C.2      17 RES17   0.0000
  2274 C3      27.2746  36.6616  20.7465   C.2      17 RES17   0.0000
  2275 C3      15.9151  34.9649  20.7465   C.2      17 RES17   0.0000
  2276 C3      25.5779  34.9649  20.7465   C.2      17 RES17   0.0000
  2277 C3      25.5779  48.0211  20.7465   C.2      17 RES17   0.0000
  2278 C3      15.9151  48.0211  20.7465   C.2      17 RES17   0.0000
  2279 Zr1     20.7465  41.4930  43.9774   Zr       18 RES18   0.0000
  2280 O2A     22.6967  41.4930  45.0247   O.co2    18 RES18   0.0000
  2281 C2      24.9537  41.4930  45.7002   C.2      18 RES18   0.0000
  2282 C3      26.2883  41.4930  45.3382   C.2      18 RES18   0.0000
  2283 H3      26.5327  41.4930  44.4203   H        18 RES18   0.0000
  2284 O1A     19.6988  40.4453  42.5407   O.3      18 RES18   0.0000
  2285 C1      23.8956  41.4930  44.6421   C.2      18 RES18   0.0000
  2286 O2A     18.7963  41.4930  45.0247   O.co2    18 RES18   0.0000
  2287 C2      16.5393  41.4930  45.7002   C.2      18 RES18   0.0000
  2288 C3      15.2047  41.4930  45.3382   C.2      18 RES18   0.0000
  2289 H3      14.9603  41.4930  44.4203   H        18 RES18   0.0000
  2290 O1A     21.7942  42.5407  42.5407   O.3      18 RES18   0.0000
  2291 C1      17.5974  41.4930  44.6421   C.2      18 RES18   0.0000
  2292 Zr1     23.2309  41.4930  41.4930   Zr       18 RES18   0.0000
  2293 O2A     24.2782  43.4432  41.4930   O.co2    18 RES18   0.0000
  2294 C2      24.9537  45.7002  41.4930   C.2      18 RES18   0.0000
  2295 C3      24.5917  47.0348  41.4930   C.2      18 RES18   0.0000
  2296 H3      23.6738  47.2792  41.4930   H        18 RES18   0.0000
  2297 O1A     21.7942  40.4453  40.4453   O.3      18 RES18   0.0000
  2298 C1      23.8956  44.6421  41.4930   C.2      18 RES18   0.0000
  2299 O2A     24.2782  39.5428  41.4930   O.co2    18 RES18   0.0000
  2300 C2      24.9537  37.2858  41.4930   C.2      18 RES18   0.0000
  2301 C3      24.5917  35.9512  41.4930   C.2      18 RES18   0.0000
  2302 H3      23.6738  35.7068  41.4930   H        18 RES18   0.0000
  2303 C1      23.8956  38.3439  41.4930   C.2      18 RES18   0.0000
  2304 Zr1     18.2621  41.4930  41.4930   Zr       18 RES18   0.0000
  2305 O2A     17.2148  39.5428  41.4930   O.co2    18 RES18   0.0000
  2306 C2      16.5393  37.2858  41.4930   C.2      18 RES18   0.0000
  2307 C3      16.9013  35.9512  41.4930   C.2      18 RES18   0.0000
  2308 H3      17.8192  35.7068  41.4930   H        18 RES18   0.0000
  2309 O1A     19.6988  42.5407  40.4453   O.3      18 RES18   0.0000
  2310 C1      17.5974  38.3439  41.4930   C.2      18 RES18   0.0000
  2311 O2A     17.2148  43.4432  41.4930   O.co2    18 RES18   0.0000
  2312 C2      16.5393  45.7002  41.4930   C.2      18 RES18   0.0000
  2313 C3      16.9013  47.0348  41.4930   C.2      18 RES18   0.0000
  2314 H3      17.8192  47.2792  41.4930   H        18 RES18   0.0000
  2315 C1      17.5974  44.6421  41.4930   C.2      18 RES18   0.0000
  2316 Zr1     20.7465  43.9774  41.4930   Zr       18 RES18   0.0000
  2317 O2A     20.7465  45.0247  43.4432   O.co2    18 RES18   0.0000
  2318 C2      20.7465  45.7002  45.7002   C.2      18 RES18   0.0000
  2319 C3      20.7465  45.3382  47.0348   C.2      18 RES18   0.0000
  2320 H3      20.7465  44.4203  47.2792   H        18 RES18   0.0000
  2321 C1      20.7465  44.6421  44.6421   C.2      18 RES18   0.0000
  2322 O2A     20.7465  45.0247  39.5428   O.co2    18 RES18   0.0000
  2323 C2      20.7465  45.7002  37.2858   C.2      18 RES18   0.0000
  2324 C3      20.7465  45.3382  35.9512   C.2      18 RES18   0.0000
  2325 H3      20.7465  44.4203  35.7068   H        18 RES18   0.0000
  2326 C1      20.7465  44.6421  38.3439   C.2      18 RES18   0.0000
  2327 Zr1     20.7465  39.0086  41.4930   Zr       18 RES18   0.0000
  2328 O2A     20.7465  37.9613  39.5428   O.co2    18 RES18   0.0000
  2329 C2      20.7465  37.2858  37.2858   C.2      18 RES18   0.0000
  2330 C3      20.7465  37.6478  35.9512   C.2      18 RES18   0.0000
  2331 H3      20.7465  38.5657  35.7068   H        18 RES18   0.0000
  2332 C1      20.7465  38.3439  38.3439   C.2      18 RES18   0.0000
  2333 O2A     20.7465  37.9613  43.4432   O.co2    18 RES18   0.0000
  2334 C2      20.7465  37.2858  45.7002   C.2      18 RES18   0.0000
  2335 C3      20.7465  37.6478  47.0348   C.2      18 RES18   0.0000
  2336 H3      20.7465  38.5657  47.2792   H        18 RES18   0.0000
  2337 C1      20.7465  38.3439  44.6421   C.2      18 RES18   0.0000
  2338 Zr1     20.7465  41.4930  39.0086   Zr       18 RES18   0.0000
  2339 O2A     20.7465  43.4432  37.9613   O.co2    18 RES18   0.0000
  2340 C3      20.7465  47.0348  37.6478   C.2      18 RES18   0.0000
  2341 H3      20.7465  47.2792  38.5657   H        18 RES18   0.0000
  2342 O1A     19.6988  40.4453  40.4453   O.3      18 RES18   0.0000
  2343 O2A     20.7465  39.5428  37.9613   O.co2    18 RES18   0.0000
  2344 C3      20.7465  35.9512  37.6478   C.2      18 RES18   0.0000
  2345 H3      20.7465  35.7068  38.5657   H        18 RES18   0.0000
  2346 O1A     21.7942  42.5407  40.4453   O.3      18 RES18   0.0000
  2347 O2A     20.7465  39.5428  45.0247   O.co2    18 RES18   0.0000
  2348 C3      20.7465  35.9512  45.3382   C.2      18 RES18   0.0000
  2349 H3      20.7465  35.7068  44.4203   H        18 RES18   0.0000
  2350 O1A     19.6988  42.5407  42.5407   O.3      18 RES18   0.0000
  2351 O2A     20.7465  43.4432  45.0247   O.co2    18 RES18   0.0000
  2352 C3      20.7465  47.0348  45.3382   C.2      18 RES18   0.0000
  2353 H3      20.7465  47.2792  44.4203   H        18 RES18   0.0000
  2354 O1A     21.7942  40.4453  42.5407   O.3      18 RES18   0.0000
  2355 O2A     22.6967  45.0247  41.4930   O.co2    18 RES18   0.0000
  2356 C3      26.2883  45.3382  41.4930   C.2      18 RES18   0.0000
  2357 H3      26.5327  44.4203  41.4930   H        18 RES18   0.0000
  2358 O2A     18.7963  45.0247  41.4930   O.co2    18 RES18   0.0000
  2359 C3      15.2047  45.3382  41.4930   C.2      18 RES18   0.0000
  2360 H3      14.9603  44.4203  41.4930   H        18 RES18   0.0000
  2361 O2A     18.7963  37.9613  41.4930   O.co2    18 RES18   0.0000
  2362 C3      15.2047  37.6478  41.4930   C.2      18 RES18   0.0000
  2363 H3      14.9603  38.5657  41.4930   H        18 RES18   0.0000
  2364 O2A     22.6967  37.9613  41.4930   O.co2    18 RES18   0.0000
  2365 C3      26.2883  37.6478  41.4930   C.2      18 RES18   0.0000
  2366 H3      26.5327  38.5657  41.4930   H        18 RES18   0.0000
  2367 O2A     24.2782  41.4930  39.5428   O.co2    18 RES18   0.0000
  2368 C2      24.9537  41.4930  37.2858   C.2      18 RES18   0.0000
  2369 C3      24.5917  41.4930  35.9512   C.2      18 RES18   0.0000
  2370 H3      23.6738  41.4930  35.7068   H        18 RES18   0.0000
  2371 C1      23.8956  41.4930  38.3439   C.2      18 RES18   0.0000
  2372 O2A     24.2782  41.4930  43.4432   O.co2    18 RES18   0.0000
  2373 C3      24.5917  41.4930  47.0348   C.2      18 RES18   0.0000
  2374 H3      23.6738  41.4930  47.2792   H        18 RES18   0.0000
  2375 O2A     17.2148  41.4930  43.4432   O.co2    18 RES18   0.0000
  2376 C3      16.9013  41.4930  47.0348   C.2      18 RES18   0.0000
  2377 H3      17.8192  41.4930  47.2792   H        18 RES18   0.0000
  2378 O2A     17.2148  41.4930  39.5428   O.co2    18 RES18   0.0000
  2379 C2      16.5393  41.4930  37.2858   C.2      18 RES18   0.0000
  2380 C3      16.9013  41.4930  35.9512   C.2      18 RES18   0.0000
  2381 H3      17.8192  41.4930  35.7068   H        18 RES18   0.0000
  2382 C1      17.5974  41.4930  38.3439   C.2      18 RES18   0.0000
  2383 O2A     18.7963  41.4930  37.9613   O.co2    18 RES18   0.0000
  2384 C3      15.2047  41.4930  37.6478   C.2      18 RES18   0.0000
  2385 H3      14.9603  41.4930  38.5657   H        18 RES18   0.0000
  2386 O2A     22.6967  41.4930  37.9613   O.co2    18 RES18   0.0000
  2387 C3      26.2883  41.4930  37.6478   C.2      18 RES18   0.0000
  2388 H3      26.5327  41.4930  38.5657   H        18 RES18   0.0000
  2389 C3      20.7465  34.9649  36.6616   C.2      18 RES18   0.0000
  2390 C3      20.7465  34.9649  46.3244   C.2      18 RES18   0.0000
  2391 C3      20.7465  48.0211  46.3244   C.2      18 RES18   0.0000
  2392 C3      20.7465  48.0211  36.6616   C.2      18 RES18   0.0000
  2393 C3      20.7465  36.6616  48.0211   C.2      18 RES18   0.0000
  2394 C3      20.7465  46.3244  48.0211   C.2      18 RES18   0.0000
  2395 C3      20.7465  46.3244  34.9649   C.2      18 RES18   0.0000
  2396 C3      20.7465  36.6616  34.9649   C.2      18 RES18   0.0000
  2397 C3      15.9151  41.4930  34.9649   C.2      18 RES18   0.0000
  2398 C3      25.5779  41.4930  34.9649   C.2      18 RES18   0.0000
  2399 C3      25.5779  41.4930  48.0211   C.2      18 RES18   0.0000
  2400 C3      15.9151  41.4930  48.0211   C.2      18 RES18   0.0000
  2401 C3      14.2184  41.4930  46.3244   C.2      18 RES18   0.0000
  2402 C3      14.2184  41.4930  36.6616   C.2      18 RES18   0.0000
  2403 C3      27.2746  41.4930  36.6616   C.2      18 RES18   0.0000
  2404 C3      27.2746  41.4930  46.3244   C.2      18 RES18   0.0000
  2405 C3      14.2184  36.6616  41.4930   C.2      18 RES18   0.0000
  2406 C3      14.2184  46.3244  41.4930   C.2      18 RES18   0.0000
  2407 C3      27.2746  46.3244  41.4930   C.2      18 RES18   0.0000
  2408 C3      27.2746  36.6616  41.4930   C.2      18 RES18   0.0000
  2409 C3      15.9151  34.9649  41.4930   C.2      18 RES18   0.0000
  2410 C3      25.5779  34.9649  41.4930   C.2      18 RES18   0.0000
  2411 C3      25.5779  48.0211  41.4930   C.2      18 RES18   0.0000
  2412 C3      15.9151  48.0211  41.4930   C.2      18 RES18   0.0000
  2413 Zr1     41.4930   0.0000   2.4844   Zr       19 RES19   0.0000
  2414 O2A     43.4432   0.0000   3.5317   O.co2    19 RES19   0.0000
  2415 C2      45.7002   0.0000   4.2072   C.2      19 RES19   0.0000
  2416 C3      47.0348   0.0000   3.8452   C.2      19 RES19   0.0000
  2417 H3      47.2792   0.0000   2.9273   H        19 RES19   0.0000
  2418 O1A     40.4453  -1.0477   1.0477   O.3      19 RES19   0.0000
  2419 C1      44.6421   0.0000   3.1491   C.2      19 RES19   0.0000
  2420 O2A     39.5428   0.0000   3.5317   O.co2    19 RES19   0.0000
  2421 C2      37.2858   0.0000   4.2072   C.2      19 RES19   0.0000
  2422 C3      35.9512   0.0000   3.8452   C.2      19 RES19   0.0000
  2423 H3      35.7068   0.0000   2.9273   H        19 RES19   0.0000
  2424 O1A     42.5407   1.0477   1.0477   O.3      19 RES19   0.0000
  2425 C1      38.3439   0.0000   3.1491   C.2      19 RES19   0.0000
  2426 Zr1     43.9774   0.0000   0.0000   Zr       19 RES19   0.0000
  2427 O2A     45.0247   1.9502   0.0000   O.co2    19 RES19   0.0000
  2428 C2      45.7002   4.2072   0.0000   C.2      19 RES19   0.0000
  2429 C3      45.3382   5.5418   0.0000   C.2      19 RES19   0.0000
  2430 H3      44.4203   5.7862   0.0000   H        19 RES19   0.0000
  2431 O1A     42.5407  -1.0477  -1.0477   O.3      19 RES19   0.0000
  2432 C1      44.6421   3.1491   0.0000   C.2      19 RES19   0.0000
  2433 O2A     45.0247  -1.9502   0.0000   O.co2    19 RES19   0.0000
  2434 C2      45.7002  -4.2072   0.0000   C.2      19 RES19   0.0000
  2435 C3      45.3382  -5.5418   0.0000   C.2      19 RES19   0.0000
  2436 H3      44.4203  -5.7862   0.0000   H        19 RES19   0.0000
  2437 C1      44.6421  -3.1491   0.0000   C.2      19 RES19   0.0000
  2438 Zr1     39.0086   0.0000   0.0000   Zr       19 RES19   0.0000
  2439 O2A     37.9613  -1.9502   0.0000   O.co2    19 RES19   0.0000
  2440 C2      37.2858  -4.2072   0.0000   C.2      19 RES19   0.0000
  2441 C3      37.6478  -5.5418   0.0000   C.2      19 RES19   0.0000
  2442 H3      38.5657  -5.7862   0.0000   H        19 RES19   0.0000
  2443 O1A     40.4453   1.0477  -1.0477   O.3      19 RES19   0.0000
  2444 C1      38.3439  -3.1491   0.0000   C.2      19 RES19   0.0000
  2445 O2A     37.9613   1.9502   0.0000   O.co2    19 RES19   0.0000
  2446 C2      37.2858   4.2072   0.0000   C.2      19 RES19   0.0000
  2447 C3      37.6478   5.5418   0.0000   C.2      19 RES19   0.0000
  2448 H3      38.5657   5.7862   0.0000   H        19 RES19   0.0000
  2449 C1      38.3439   3.1491   0.0000   C.2      19 RES19   0.0000
  2450 Zr1     41.4930   2.4844   0.0000   Zr       19 RES19   0.0000
  2451 O2A     41.4930   3.5317   1.9502   O.co2    19 RES19   0.0000
  2452 C2      41.4930   4.2072   4.2072   C.2      19 RES19   0.0000
  2453 C3      41.4930   3.8452   5.5418   C.2      19 RES19   0.0000
  2454 H3      41.4930   2.9273   5.7862   H        19 RES19   0.0000
  2455 C1      41.4930   3.1491   3.1491   C.2      19 RES19   0.0000
  2456 O2A     41.4930   3.5317  -1.9502   O.co2    19 RES19   0.0000
  2457 C2      41.4930   4.2072  -4.2072   C.2      19 RES19   0.0000
  2458 C3      41.4930   3.8452  -5.5418   C.2      19 RES19   0.0000
  2459 H3      41.4930   2.9273  -5.7862   H        19 RES19   0.0000
  2460 C1      41.4930   3.1491  -3.1491   C.2      19 RES19   0.0000
  2461 Zr1     41.4930  -2.4844   0.0000   Zr       19 RES19   0.0000
  2462 O2A     41.4930  -3.5317  -1.9502   O.co2    19 RES19   0.0000
  2463 C2      41.4930  -4.2072  -4.2072   C.2      19 RES19   0.0000
  2464 C3      41.4930  -3.8452  -5.5418   C.2      19 RES19   0.0000
  2465 H3      41.4930  -2.9273  -5.7862   H        19 RES19   0.0000
  2466 C1      41.4930  -3.1491  -3.1491   C.2      19 RES19   0.0000
  2467 O2A     41.4930  -3.5317   1.9502   O.co2    19 RES19   0.0000
  2468 C2      41.4930  -4.2072   4.2072   C.2      19 RES19   0.0000
  2469 C3      41.4930  -3.8452   5.5418   C.2      19 RES19   0.0000
  2470 H3      41.4930  -2.9273   5.7862   H        19 RES19   0.0000
  2471 C1      41.4930  -3.1491   3.1491   C.2      19 RES19   0.0000
  2472 Zr1     41.4930  -0.0000  -2.4844   Zr       19 RES19   0.0000
  2473 O2A     41.4930   1.9502  -3.5317   O.co2    19 RES19   0.0000
  2474 C3      41.4930   5.5418  -3.8452   C.2      19 RES19   0.0000
  2475 H3      41.4930   5.7862  -2.9273   H        19 RES19   0.0000
  2476 O1A     40.4453  -1.0477  -1.0477   O.3      19 RES19   0.0000
  2477 O2A     41.4930  -1.9502  -3.5317   O.co2    19 RES19   0.0000
  2478 C3      41.4930  -5.5418  -3.8452   C.2      19 RES19   0.0000
  2479 H3      41.4930  -5.7862  -2.9273   H        19 RES19   0.0000
  2480 O1A     42.5407   1.0477  -1.0477   O.3      19 RES19   0.0000
  2481 O2A     41.4930  -1.9502   3.5317   O.co2    19 RES19   0.0000
  2482 C3      41.4930  -5.5418   3.8452   C.2      19 RES19   0.0000
  2483 H3      41.4930  -5.7862   2.9273   H        19 RES19   0.0000
  2484 O1A     40.4453   1.0477   1.0477   O.3      19 RES19   0.0000
  2485 O2A     41.4930   1.9502   3.5317   O.co2    19 RES19   0.0000
  2486 C3      41.4930   5.5418   3.8452   C.2      19 RES19   0.0000
  2487 H3      41.4930   5.7862   2.9273   H        19 RES19   0.0000
  2488 O1A     42.5407  -1.0477   1.0477   O.3      19 RES19   0.0000
  2489 O2A     43.4432   3.5317   0.0000   O.co2    19 RES19   0.0000
  2490 C3      47.0348   3.8452   0.0000   C.2      19 RES19   0.0000
  2491 H3      47.2792   2.9273   0.0000   H        19 RES19   0.0000
  2492 O2A     39.5428   3.5317   0.0000   O.co2    19 RES19   0.0000
  2493 C3      35.9512   3.8452   0.0000   C.2      19 RES19   0.0000
  2494 H3      35.7068   2.9273   0.0000   H        19 RES19   0.0000
  2495 O2A     39.5428  -3.5317   0.0000   O.co2    19 RES19   0.0000
  2496 C3      35.9512  -3.8452   0.0000   C.2      19 RES19   0.0000
  2497 H3      35.7068  -2.9273   0.0000   H        19 RES19   0.0000
  2498 O2A     43.4432  -3.5317   0.0000   O.co2    19 RES19   0.0000
  2499 C3      47.0348  -3.8452   0.0000   C.2      19 RES19   0.0000
  2500 H3      47.2792  -2.9273   0.0000   H        19 RES19   0.0000
  2501 O2A     45.0247  -0.0000  -1.9502   O.co2    19 RES19   0.0000
  2502 C2      45.7002  -0.0000  -4.2072   C.2      19 RES19   0.0000
  2503 C3      45.3382  -0.0000  -5.5418   C.2      19 RES19   0.0000
  2504 H3      44.4203  -0.0000  -5.7862   H        19 RES19   0.0000
  2505 C1      44.6421  -0.0000  -3.1491   C.2      19 RES19   0.0000
  2506 O2A     45.0247   0.0000   1.9502   O.co2    19 RES19   0.0000
  2507 C3      45.3382   0.0000   5.5418   C.2      19 RES19   0.0000
  2508 H3      44.4203   0.0000   5.7862   H        19 RES19   0.0000
  2509 O2A     37.9613   0.0000   1.9502   O.co2    19 RES19   0.0000
  2510 C3      37.6478   0.0000   5.5418   C.2      19 RES19   0.0000
  2511 H3      38.5657   0.0000   5.7862   H        19 RES19   0.0000
  2512 O2A     37.9613  -0.0000  -1.9502   O.co2    19 RES19   0.0000
  2513 C2      37.2858  -0.0000  -4.2072   C.2      19 RES19   0.0000
  2514 C3      37.6478  -0.0000  -5.5418   C.2      19 RES19   0.0000
  2515 H3      38.5657  -0.0000  -5.7862   H        19 RES19   0.0000
  2516 C1      38.3439  -0.0000  -3.1491   C.2      19 RES19   0.0000
  2517 O2A     39.5428  -0.0000  -3.5317   O.co2    19 RES19   0.0000
  2518 C3      35.9512  -0.0000  -3.8452   C.2      19 RES19   0.0000
  2519 H3      35.7068  -0.0000  -2.9273   H        19 RES19   0.0000
  2520 O2A     43.4432  -0.0000  -3.5317   O.co2    19 RES19   0.0000
  2521 C3      47.0348  -0.0000  -3.8452   C.2      19 RES19   0.0000
  2522 H3      47.2792  -0.0000  -2.9273   H        19 RES19   0.0000
  2523 C3      41.4930  -6.5281  -4.8314   C.2      19 RES19   0.0000
  2524 C3      41.4930  -6.5281   4.8314   C.2      19 RES19   0.0000
  2525 C3      41.4930   6.5281   4.8314   C.2      19 RES19   0.0000
  2526 C3      41.4930   6.5281  -4.8314   C.2      19 RES19   0.0000
  2527 C3      41.4930  -4.8314   6.5281   C.2      19 RES19   0.0000
  2528 C3      41.4930   4.8314   6.5281   C.2      19 RES19   0.0000
  2529 C3      41.4930   4.8314  -6.5281   C.2      19 RES19   0.0000
  2530 C3      41.4930  -4.8314  -6.5281   C.2      19 RES19   0.0000
  2531 C3      36.6616  -0.0000  -6.5281   C.2      19 RES19   0.0000
  2532 C3      46.3244  -0.0000  -6.5281   C.2      19 RES19   0.0000
  2533 C3      46.3244   0.0000   6.5281   C.2      19 RES19   0.0000
  2534 C3      36.6616   0.0000   6.5281   C.2      19 RES19   0.0000
  2535 C3      34.9649   0.0000   4.8314   C.2      19 RES19   0.0000
  2536 C3      34.9649  -0.0000  -4.8314   C.2      19 RES19   0.0000
  2537 C3      48.0211  -0.0000  -4.8314   C.2      19 RES19   0.0000
  2538 C3      48.0211   0.0000   4.8314   C.2      19 RES19   0.0000
  2539 C3      34.9649  -4.8314   0.0000   C.2      19 RES19   0.0000
  2540 C3      34.9649   4.8314   0.0000   C.2      19 RES19   0.0000
  2541 C3      48.0211   4.8314   0.0000   C.2      19 RES19   0.0000
  2542 C3      48.0211  -4.8314   0.0000   C.2      19 RES19   0.0000
  2543 C3      36.6616  -6.5281   0.0000   C.2      19 RES19   0.0000
  2544 C3      46.3244  -6.5281   0.0000   C.2      19 RES19   0.0000
  2545 C3      46.3244   6.5281   0.0000   C.2      19 RES19   0.0000
  2546 C3      36.6616   6.5281   0.0000   C.2      19 RES19   0.0000
  2547 Zr1     41.4930   0.0000  23.2309   Zr       20 RES20   0.0000
  2548 O2A     43.4432   0.0000  24.2782   O.co2    20 RES20   0.0000
  2549 C2      45.7002   0.0000  24.9537   C.2      20 RES20   0.0000
  2550 C3      47.0348   0.0000  24.5917   C.2      20 RES20   0.0000
  2551 H3      47.2792   0.0000  23.6738   H        20 RES20   0.0000
  2552 O1A     40.4453  -1.0477  21.7942   O.3      20 RES20   0.0000
  2553 C1      44.6421   0.0000  23.8956   C.2      20 RES20   0.0000
  2554 O2A     39.5428   0.0000  24.2782   O.co2    20 RES20   0.0000
  2555 C2      37.2858   0.0000  24.9537   C.2      20 RES20   0.0000
  2556 C3      35.9512   0.0000  24.5917   C.2      20 RES20   0.0000
  2557 H3      35.7068   0.0000  23.6738   H        20 RES20   0.0000
  2558 O1A     42.5407   1.0477  21.7942   O.3      20 RES20   0.0000
  2559 C1      38.3439   0.0000  23.8956   C.2      20 RES20   0.0000
  2560 Zr1     43.9774   0.0000  20.7465   Zr       20 RES20   0.0000
  2561 O2A     45.0247   1.9502  20.7465   O.co2    20 RES20   0.0000
  2562 C2      45.7002   4.2072  20.7465   C.2      20 RES20   0.0000
  2563 C3      45.3382   5.5418  20.7465   C.2      20 RES20   0.0000
  2564 H3      44.4203   5.7862  20.7465   H        20 RES20   0.0000
  2565 O1A     42.5407  -1.0477  19.6988   O.3      20 RES20   0.0000
  2566 C1      44.6421   3.1491  20.7465   C.2      20 RES20   0.0000
  2567 O2A     45.0247  -1.9502  20.7465   O.co2    20 RES20   0.0000
  2568 C2      45.7002  -4.2072  20.7465   C.2      20 RES20   0.0000
  2569 C3      45.3382  -5.5418  20.7465   C.2      20 RES20   0.0000
  2570 H3      44.4203  -5.7862  20.7465   H        20 RES20   0.0000
  2571 C1      44.6421  -3.1491  20.7465   C.2      20 RES20   0.0000
  2572 Zr1     39.0086   0.0000  20.7465   Zr       20 RES20   0.0000
  2573 O2A     37.9613  -1.9502  20.7465   O.co2    20 RES20   0.0000
  2574 C2      37.2858  -4.2072  20.7465   C.2      20 RES20   0.0000
  2575 C3      37.6478  -5.5418  20.7465   C.2      20 RES20   0.0000
  2576 H3      38.5657  -5.7862  20.7465   H        20 RES20   0.0000
  2577 O1A     40.4453   1.0477  19.6988   O.3      20 RES20   0.0000
  2578 C1      38.3439  -3.1491  20.7465   C.2      20 RES20   0.0000
  2579 O2A     37.9613   1.9502  20.7465   O.co2    20 RES20   0.0000
  2580 C2      37.2858   4.2072  20.7465   C.2      20 RES20   0.0000
  2581 C3      37.6478   5.5418  20.7465   C.2      20 RES20   0.0000
  2582 H3      38.5657   5.7862  20.7465   H        20 RES20   0.0000
  2583 C1      38.3439   3.1491  20.7465   C.2      20 RES20   0.0000
  2584 Zr1     41.4930   2.4844  20.7465   Zr       20 RES20   0.0000
  2585 O2A     41.4930   3.5317  22.6967   O.co2    20 RES20   0.0000
  2586 C2      41.4930   4.2072  24.9537   C.2      20 RES20   0.0000
  2587 C3      41.4930   3.8452  26.2883   C.2      20 RES20   0.0000
  2588 H3      41.4930   2.9273  26.5327   H        20 RES20   0.0000
  2589 C1      41.4930   3.1491  23.8956   C.2      20 RES20   0.0000
  2590 O2A     41.4930   3.5317  18.7963   O.co2    20 RES20   0.0000
  2591 C2      41.4930   4.2072  16.5393   C.2      20 RES20   0.0000
  2592 C3      41.4930   3.8452  15.2047   C.2      20 RES20   0.0000
  2593 H3      41.4930   2.9273  14.9603   H        20 RES20   0.0000
  2594 C1      41.4930   3.1491  17.5974   C.2      20 RES20   0.0000
  2595 Zr1     41.4930  -2.4844  20.7465   Zr       20 RES20   0.0000
  2596 O2A     41.4930  -3.5317  18.7963   O.co2    20 RES20   0.0000
  2597 C2      41.4930  -4.2072  16.5393   C.2      20 RES20   0.0000
  2598 C3      41.4930  -3.8452  15.2047   C.2      20 RES20   0.0000
  2599 H3      41.4930  -2.9273  14.9603   H        20 RES20   0.0000
  2600 C1      41.4930  -3.1491  17.5974   C.2      20 RES20   0.0000
  2601 O2A     41.4930  -3.5317  22.6967   O.co2    20 RES20   0.0000
  2602 C2      41.4930  -4.2072  24.9537   C.2      20 RES20   0.0000
  2603 C3      41.4930  -3.8452  26.2883   C.2      20 RES20   0.0000
  2604 H3      41.4930  -2.9273  26.5327   H        20 RES20   0.0000
  2605 C1      41.4930  -3.1491  23.8956   C.2      20 RES20   0.0000
  2606 Zr1     41.4930   0.0000  18.2621   Zr       20 RES20   0.0000
  2607 O2A     41.4930   1.9502  17.2148   O.co2    20 RES20   0.0000
  2608 C3      41.4930   5.5418  16.9013   C.2      20 RES20   0.0000
  2609 H3      41.4930   5.7862  17.8192   H        20 RES20   0.0000
  2610 O1A     40.4453  -1.0477  19.6988   O.3      20 RES20   0.0000
  2611 O2A     41.4930  -1.9502  17.2148   O.co2    20 RES20   0.0000
  2612 C3      41.4930  -5.5418  16.9013   C.2      20 RES20   0.0000
  2613 H3      41.4930  -5.7862  17.8192   H        20 RES20   0.0000
  2614 O1A     42.5407   1.0477  19.6988   O.3      20 RES20   0.0000
  2615 O2A     41.4930  -1.9502  24.2782   O.co2    20 RES20   0.0000
  2616 C3      41.4930  -5.5418  24.5917   C.2      20 RES20   0.0000
  2617 H3      41.4930  -5.7862  23.6738   H        20 RES20   0.0000
  2618 O1A     40.4453   1.0477  21.7942   O.3      20 RES20   0.0000
  2619 O2A     41.4930   1.9502  24.2782   O.co2    20 RES20   0.0000
  2620 C3      41.4930   5.5418  24.5917   C.2      20 RES20   0.0000
  2621 H3      41.4930   5.7862  23.6738   H        20 RES20   0.0000
  2622 O1A     42.5407  -1.0477  21.7942   O.3      20 RES20   0.0000
  2623 O2A     43.4432   3.5317  20.7465   O.co2    20 RES20   0.0000
  2624 C3      47.0348   3.8452  20.7465   C.2      20 RES20   0.0000
  2625 H3      47.2792   2.9273  20.7465   H        20 RES20   0.0000
  2626 O2A     39.5428   3.5317  20.7465   O.co2    20 RES20   0.0000
  2627 C3      35.9512   3.8452  20.7465   C.2      20 RES20   0.0000
  2628 H3      35.7068   2.9273  20.7465   H        20 RES20   0.0000
  2629 O2A     39.5428  -3.5317  20.7465   O.co2    20 RES20   0.0000
  2630 C3      35.9512  -3.8452  20.7465   C.2      20 RES20   0.0000
  2631 H3      35.7068  -2.9273  20.7465   H        20 RES20   0.0000
  2632 O2A     43.4432  -3.5317  20.7465   O.co2    20 RES20   0.0000
  2633 C3      47.0348  -3.8452  20.7465   C.2      20 RES20   0.0000
  2634 H3      47.2792  -2.9273  20.7465   H        20 RES20   0.0000
  2635 O2A     45.0247   0.0000  18.7963   O.co2    20 RES20   0.0000
  2636 C2      45.7002   0.0000  16.5393   C.2      20 RES20   0.0000
  2637 C3      45.3382   0.0000  15.2047   C.2      20 RES20   0.0000
  2638 H3      44.4203   0.0000  14.9603   H        20 RES20   0.0000
  2639 C1      44.6421   0.0000  17.5974   C.2      20 RES20   0.0000
  2640 O2A     45.0247   0.0000  22.6967   O.co2    20 RES20   0.0000
  2641 C3      45.3382   0.0000  26.2883   C.2      20 RES20   0.0000
  2642 H3      44.4203   0.0000  26.5327   H        20 RES20   0.0000
  2643 O2A     37.9613   0.0000  22.6967   O.co2    20 RES20   0.0000
  2644 C3      37.6478   0.0000  26.2883   C.2      20 RES20   0.0000
  2645 H3      38.5657   0.0000  26.5327   H        20 RES20   0.0000
  2646 O2A     37.9613   0.0000  18.7963   O.co2    20 RES20   0.0000
  2647 C2      37.2858   0.0000  16.5393   C.2      20 RES20   0.0000
  2648 C3      37.6478   0.0000  15.2047   C.2      20 RES20   0.0000
  2649 H3      38.5657   0.0000  14.9603   H        20 RES20   0.0000
  2650 C1      38.3439   0.0000  17.5974   C.2      20 RES20   0.0000
  2651 O2A     39.5428   0.0000  17.2148   O.co2    20 RES20   0.0000
  2652 C3      35.9512   0.0000  16.9013   C.2      20 RES20   0.0000
  2653 H3      35.7068   0.0000  17.8192   H        20 RES20   0.0000
  2654 O2A     43.4432   0.0000  17.2148   O.co2    20 RES20   0.0000
  2655 C3      47.0348   0.0000  16.9013   C.2      20 RES20   0.0000
  2656 H3      47.2792   0.0000  17.8192   H        20 RES20   0.0000
  2657 C3      41.4930  -6.5281  15.9151   C.2      20 RES20   0.0000
  2658 C3      41.4930  -6.5281  25.5779   C.2      20 RES20   0.0000
  2659 C3      41.4930   6.5281  25.5779   C.2      20 RES20   0.0000
  2660 C3      41.4930   6.5281  15.9151   C.2      20 RES20   0.0000
  2661 C3      41.4930  -4.8314  27.2746   C.2      20 RES20   0.0000
  2662 C3      41.4930   4.8314  27.2746   C.2      20 RES20   0.0000
  2663 C3      41.4930   4.8314  14.2184   C.2      20 RES20   0.0000
  2664 C3      41.4930  -4.8314  14.2184   C.2      20 RES20   0.0000
  2665 C3      36.6616   0.0000  14.2184   C.2      20 RES20   0.0000
  2666 C3      46.3244   0.0000  14.2184   C.2      20 RES20   0.0000
  2667 C3      46.3244   0.0000  27.2746   C.2      20 RES20   0.0000
  2668 C3      36.6616   0.0000  27.2746   C.2      20 RES20   0.0000
  2669 C3      34.9649   0.0000  25.5779   C.2      20 RES20   0.0000
  2670 C3      34.9649   0.0000  15.9151   C.2      20 RES20   0.0000
  2671 C3      48.0211   0.0000  15.9151   C.2      20 RES20   0.0000
  2672 C3      48.0211   0.0000  25.5779   C.2      20 RES20   0.0000
  2673 C3      34.9649  -4.8314  20.7465   C.2      20 RES20   0.0000
  2674 C3      34.9649   4.8314  20.7465   C.2      20 RES20   0.0000
  2675 C3      48.0211   4.8314  20.7465   C.2      20 RES20   0.0000
  2676 C3      48.0211  -4.8314  20.7465   C.2      20 RES20   0.0000
  2677 C3      36.6616  -6.5281  20.7465   C.2      20 RES20   0.0000
  2678 C3      46.3244  -6.5281  20.7465   C.2      20 RES20   0.0000
  2679 C3      46.3244   6.5281  20.7465   C.2      20 RES20   0.0000
  2680 C3      36.6616   6.5281  20.7465   C.2      20 RES20   0.0000
  2681 Zr1     41.4930   0.0000  43.9774   Zr       21 RES21   0.0000
  2682 O2A     43.4432   0.0000  45.0247   O.co2    21 RES21   0.0000
  2683 C2      45.7002   0.0000  45.7002   C.2      21 RES21   0.0000
  2684 C3      47.0348   0.0000  45.3382   C.2      21 RES21   0.0000
  2685 H3      47.2792   0.0000  44.4203   H        21 RES21   0.0000
  2686 O1A     40.4453  -1.0477  42.5407   O.3      21 RES21   0.0000
  2687 C1      44.6421   0.0000  44.6421   C.2      21 RES21   0.0000
  2688 O2A     39.5428   0.0000  45.0247   O.co2    21 RES21   0.0000
  2689 C2      37.2858   0.0000  45.7002   C.2      21 RES21   0.0000
  2690 C3      35.9512   0.0000  45.3382   C.2      21 RES21   0.0000
  2691 H3      35.7068   0.0000  44.4203   H        21 RES21   0.0000
  2692 O1A     42.5407   1.0477  42.5407   O.3      21 RES21   0.0000
  2693 C1      38.3439   0.0000  44.6421   C.2      21 RES21   0.0000
  2694 Zr1     43.9774   0.0000  41.4930   Zr       21 RES21   0.0000
  2695 O2A     45.0247   1.9502  41.4930   O.co2    21 RES21   0.0000
  2696 C2      45.7002   4.2072  41.4930   C.2      21 RES21   0.0000
  2697 C3      45.3382   5.5418  41.4930   C.2      21 RES21   0.0000
  2698 H3      44.4203   5.7862  41.4930   H        21 RES21   0.0000
  2699 O1A     42.5407  -1.0477  40.4453   O.3      21 RES21   0.0000
  2700 C1      44.6421   3.1491  41.4930   C.2      21 RES21   0.0000
  2701 O2A     45.0247  -1.9502  41.4930   O.co2    21 RES21   0.0000
  2702 C2      45.7002  -4.2072  41.4930   C.2      21 RES21   0.0000
  2703 C3      45.3382  -5.5418  41.4930   C.2      21 RES21   0.0000
  2704 H3      44.4203  -5.7862  41.4930   H        21 RES21   0.0000
  2705 C1      44.6421  -3.1491  41.4930   C.2      21 RES21   0.0000
  2706 Zr1     39.0086   0.0000  41.4930   Zr       21 RES21   0.0000
  2707 O2A     37.9613  -1.9502  41.4930   O.co2    21 RES21   0.0000
  2708 C2      37.2858  -4.2072  41.4930   C.2      21 RES21   0.0000
  2709 C3      37.6478  -5.5418  41.4930   C.2      21 RES21   0.0000
  2710 H3      38.5657  -5.7862  41.4930   H        21 RES21   0.0000
  2711 O1A     40.4453   1.0477  40.4453   O.3      21 RES21   0.0000
  2712 C1      38.3439  -3.1491  41.4930   C.2      21 RES21   0.0000
  2713 O2A     37.9613   1.9502  41.4930   O.co2    21 RES21   0.0000
  2714 C2      37.2858   4.2072  41.4930   C.2      21 RES21   0.0000
  2715 C3      37.6478   5.5418  41.4930   C.2      21 RES21   0.0000
  2716 H3      38.5657   5.7862  41.4930   H        21 RES21   0.0000
  2717 C1      38.3439   3.1491  41.4930   C.2      21 RES21   0.0000
  2718 Zr1     41.4930   2.4844  41.4930   Zr       21 RES21   0.0000
  2719 O2A     41.4930   3.5317  43.4432   O.co2    21 RES21   0.0000
  2720 C2      41.4930   4.2072  45.7002   C.2      21 RES21   0.0000
  2721 C3      41.4930   3.8452  47.0348   C.2      21 RES21   0.0000
  2722 H3      41.4930   2.9273  47.2792   H        21 RES21   0.0000
  2723 C1      41.4930   3.1491  44.6421   C.2      21 RES21   0.0000
  2724 O2A     41.4930   3.5317  39.5428   O.co2    21 RES21   0.0000
  2725 C2      41.4930   4.2072  37.2858   C.2      21 RES21   0.0000
  2726 C3      41.4930   3.8452  35.9512   C.2      21 RES21   0.0000
  2727 H3      41.4930   2.9273  35.7068   H        21 RES21   0.0000
  2728 C1      41.4930   3.1491  38.3439   C.2      21 RES21   0.0000
  2729 Zr1     41.4930  -2.4844  41.4930   Zr       21 RES21   0.0000
  2730 O2A     41.4930  -3.5317  39.5428   O.co2    21 RES21   0.0000
  2731 C2      41.4930  -4.2072  37.2858   C.2      21 RES21   0.0000
  2732 C3      41.4930  -3.8452  35.9512   C.2      21 RES21   0.0000
  2733 H3      41.4930  -2.9273  35.7068   H        21 RES21   0.0000
  2734 C1      41.4930  -3.1491  38.3439   C.2      21 RES21   0.0000
  2735 O2A     41.4930  -3.5317  43.4432   O.co2    21 RES21   0.0000
  2736 C2      41.4930  -4.2072  45.7002   C.2      21 RES21   0.0000
  2737 C3      41.4930  -3.8452  47.0348   C.2      21 RES21   0.0000
  2738 H3      41.4930  -2.9273  47.2792   H        21 RES21   0.0000
  2739 C1      41.4930  -3.1491  44.6421   C.2      21 RES21   0.0000
  2740 Zr1     41.4930   0.0000  39.0086   Zr       21 RES21   0.0000
  2741 O2A     41.4930   1.9502  37.9613   O.co2    21 RES21   0.0000
  2742 C3      41.4930   5.5418  37.6478   C.2      21 RES21   0.0000
  2743 H3      41.4930   5.7862  38.5657   H        21 RES21   0.0000
  2744 O1A     40.4453  -1.0477  40.4453   O.3      21 RES21   0.0000
  2745 O2A     41.4930  -1.9502  37.9613   O.co2    21 RES21   0.0000
  2746 C3      41.4930  -5.5418  37.6478   C.2      21 RES21   0.0000
  2747 H3      41.4930  -5.7862  38.5657   H        21 RES21   0.0000
  2748 O1A     42.5407   1.0477  40.4453   O.3      21 RES21   0.0000
  2749 O2A     41.4930  -1.9502  45.0247   O.co2    21 RES21   0.0000
  2750 C3      41.4930  -5.5418  45.3382   C.2      21 RES21   0.0000
  2751 H3      41.4930  -5.7862  44.4203   H        21 RES21   0.0000
  2752 O1A     40.4453   1.0477  42.5407   O.3      21 RES21   0.0000
  2753 O2A     41.4930   1.9502  45.0247   O.co2    21 RES21   0.0000
  2754 C3      41.4930   5.5418  45.3382   C.2      21 RES21   0.0000
  2755 H3      41.4930   5.7862  44.4203   H        21 RES21   0.0000
  2756 O1A     42.5407  -1.0477  42.5407   O.3      21 RES21   0.0000
  2757 O2A     43.4432   3.5317  41.4930   O.co2    21 RES21   0.0000
  2758 C3      47.0348   3.8452  41.4930   C.2      21 RES21   0.0000
  2759 H3      47.2792   2.9273  41.4930   H        21 RES21   0.0000
  2760 O2A     39.5428   3.5317  41.4930   O.co2    21 RES21   0.0000
  2761 C3      35.9512   3.8452  41.4930   C.2      21 RES21   0.0000
  2762 H3      35.7068   2.9273  41.4930   H        21 RES21   0.0000
  2763 O2A     39.5428  -3.5317  41.4930   O.co2    21 RES21   0.0000
  2764 C3      35.9512  -3.8452  41.4930   C.2      21 RES21   0.0000
  2765 H3      35.7068  -2.9273  41.4930   H        21 RES21   0.0000
  2766 O2A     43.4432  -3.5317  41.4930   O.co2    21 RES21   0.0000
  2767 C3      47.0348  -3.8452  41.4930   C.2      21 RES21   0.0000
  2768 H3      47.2792  -2.9273  41.4930   H        21 RES21   0.0000
  2769 O2A     45.0247   0.0000  39.5428   O.co2    21 RES21   0.0000
  2770 C2      45.7002   0.0000  37.2858   C.2      21 RES21   0.0000
  2771 C3      45.3382   0.0000  35.9512   C.2      21 RES21   0.0000
  2772 H3      44.4203   0.0000  35.7068   H        21 RES21   0.0000
  2773 C1      44.6421   0.0000  38.3439   C.2      21 RES21   0.0000
  2774 O2A     45.0247   0.0000  43.4432   O.co2    21 RES21   0.0000
  2775 C3      45.3382   0.0000  47.0348   C.2      21 RES21   0.0000
  2776 H3      44.4203   0.0000  47.2792   H        21 RES21   0.0000
  2777 O2A     37.9613   0.0000  43.4432   O.co2    21 RES21   0.0000
  2778 C3      37.6478   0.0000  47.0348   C.2      21 RES21   0.0000
  2779 H3      38.5657   0.0000  47.2792   H        21 RES21   0.0000
  2780 O2A     37.9613   0.0000  39.5428   O.co2    21 RES21   0.0000
  2781 C2      37.2858   0.0000  37.2858   C.2      21 RES21   0.0000
  2782 C3      37.6478   0.0000  35.9512   C.2      21 RES21   0.0000
  2783 H3      38.5657   0.0000  35.7068   H        21 RES21   0.0000
  2784 C1      38.3439   0.0000  38.3439   C.2      21 RES21   0.0000
  2785 O2A     39.5428   0.0000  37.9613   O.co2    21 RES21   0.0000
  2786 C3      35.9512   0.0000  37.6478   C.2      21 RES21   0.0000
  2787 H3      35.7068   0.0000  38.5657   H        21 RES21   0.0000
  2788 O2A     43.4432   0.0000  37.9613   O.co2    21 RES21   0.0000
  2789 C3      47.0348   0.0000  37.6478   C.2      21 RES21   0.0000
  2790 H3      47.2792   0.0000  38.5657   H        21 RES21   0.0000
  2791 C3      41.4930  -6.5281  36.6616   C.2      21 RES21   0.0000
  2792 C3      41.4930  -6.5281  46.3244   C.2      21 RES21   0.0000
  2793 C3      41.4930   6.5281  46.3244   C.2      21 RES21   0.0000
  2794 C3      41.4930   6.5281  36.6616   C.2      21 RES21   0.0000
  2795 C3      41.4930  -4.8314  48.0211   C.2      21 RES21   0.0000
  2796 C3      41.4930   4.8314  48.0211   C.2      21 RES21   0.0000
  2797 C3      41.4930   4.8314  34.9649   C.2      21 RES21   0.0000
  2798 C3      41.4930  -4.8314  34.9649   C.2      21 RES21   0.0000
  2799 C3      36.6616   0.0000  34.9649   C.2      21 RES21   0.0000
  2800 C3      46.3244   0.0000  34.9649   C.2      21 RES21   0.0000
  2801 C3      46.3244   0.0000  48.0211   C.2      21 RES21   0.0000
  2802 C3      36.6616   0.0000  48.0211   C.2      21 RES21   0.0000
  2803 C3      34.9649   0.0000  46.3244   C.2      21 RES21   0.0000
  2804 C3      34.9649   0.0000  36.6616   C.2      21 RES21   0.0000
  2805 C3      48.0211   0.0000  36.6616   C.2      21 RES21   0.0000
  2806 C3      48.0211   0.0000  46.3244   C.2      21 RES21   0.0000
  2807 C3      34.9649  -4.8314  41.4930   C.2      21 RES21   0.0000
  2808 C3      34.9649   4.8314  41.4930   C.2      21 RES21   0.0000
  2809 C3      48.0211   4.8314  41.4930   C.2      21 RES21   0.0000
  2810 C3      48.0211  -4.8314  41.4930   C.2      21 RES21   0.0000
  2811 C3      36.6616  -6.5281  41.4930   C.2      21 RES21   0.0000
  2812 C3      46.3244  -6.5281  41.4930   C.2      21 RES21   0.0000
  2813 C3      46.3244   6.5281  41.4930   C.2      21 RES21   0.0000
  2814 C3      36.6616   6.5281  41.4930   C.2      21 RES21   0.0000
  2815 Zr1     41.4930  20.7465   2.4844   Zr       22 RES22   0.0000
  2816 O2A     43.4432  20.7465   3.5317   O.co2    22 RES22   0.0000
  2817 C2      45.7002  20.7465   4.2072   C.2      22 RES22   0.0000
  2818 C3      47.0348  20.7465   3.8452   C.2      22 RES22   0.0000
  2819 H3      47.2792  20.7465   2.9273   H        22 RES22   0.0000
  2820 O1A     40.4453  19.6988   1.0477   O.3      22 RES22   0.0000
  2821 C1      44.6421  20.7465   3.1491   C.2      22 RES22   0.0000
  2822 O2A     39.5428  20.7465   3.5317   O.co2    22 RES22   0.0000
  2823 C2      37.2858  20.7465   4.2072   C.2      22 RES22   0.0000
  2824 C3      35.9512  20.7465   3.8452   C.2      22 RES22   0.0000
  2825 H3      35.7068  20.7465   2.9273   H        22 RES22   0.0000
  2826 O1A     42.5407  21.7942   1.0477   O.3      22 RES22   0.0000
  2827 C1      38.3439  20.7465   3.1491   C.2      22 RES22   0.0000
  2828 Zr1     43.9774  20.7465   0.0000   Zr       22 RES22   0.0000
  2829 O2A     45.0247  22.6967   0.0000   O.co2    22 RES22   0.0000
  2830 C2      45.7002  24.9537   0.0000   C.2      22 RES22   0.0000
  2831 C3      45.3382  26.2883   0.0000   C.2      22 RES22   0.0000
  2832 H3      44.4203  26.5327   0.0000   H        22 RES22   0.0000
  2833 O1A     42.5407  19.6988  -1.0477   O.3      22 RES22   0.0000
  2834 C1      44.6421  23.8956   0.0000   C.2      22 RES22   0.0000
  2835 O2A     45.0247  18.7963   0.0000   O.co2    22 RES22   0.0000
  2836 C2      45.7002  16.5393   0.0000   C.2      22 RES22   0.0000
  2837 C3      45.3382  15.2047   0.0000   C.2      22 RES22   0.0000
  2838 H3      44.4203  14.9603   0.0000   H        22 RES22   0.0000
  2839 C1      44.6421  17.5974   0.0000   C.2      22 RES22   0.0000
  2840 Zr1     39.0086  20.7465   0.0000   Zr       22 RES22   0.0000
  2841 O2A     37.9613  18.7963   0.0000   O.co2    22 RES22   0.0000
  2842 C2      37.2858  16.5393   0.0000   C.2      22 RES22   0.0000
  2843 C3      37.6478  15.2047   0.0000   C.2      22 RES22   0.0000
  2844 H3      38.5657  14.9603   0.0000   H        22 RES22   0.0000
  2845 O1A     40.4453  21.7942  -1.0477   O.3      22 RES22   0.0000
  2846 C1      38.3439  17.5974   0.0000   C.2      22 RES22   0.0000
  2847 O2A     37.9613  22.6967   0.0000   O.co2    22 RES22   0.0000
  2848 C2      37.2858  24.9537   0.0000   C.2      22 RES22   0.0000
  2849 C3      37.6478  26.2883   0.0000   C.2      22 RES22   0.0000
  2850 H3      38.5657  26.5327   0.0000   H        22 RES22   0.0000
  2851 C1      38.3439  23.8956   0.0000   C.2      22 RES22   0.0000
  2852 Zr1     41.4930  23.2309   0.0000   Zr       22 RES22   0.0000
  2853 O2A     41.4930  24.2782   1.9502   O.co2    22 RES22   0.0000
  2854 C2      41.4930  24.9537   4.2072   C.2      22 RES22   0.0000
  2855 C3      41.4930  24.5917   5.5418   C.2      22 RES22   0.0000
  2856 H3      41.4930  23.6738   5.7862   H        22 RES22   0.0000
  2857 C1      41.4930  23.8956   3.1491   C.2      22 RES22   0.0000
  2858 O2A     41.4930  24.2782  -1.9502   O.co2    22 RES22   0.0000
  2859 C2      41.4930  24.9537  -4.2072   C.2      22 RES22   0.0000
  2860 C3      41.4930  24.5917  -5.5418   C.2      22 RES22   0.0000
  2861 H3      41.4930  23.6738  -5.7862   H        22 RES22   0.0000
  2862 C1      41.4930  23.8956  -3.1491   C.2      22 RES22   0.0000
  2863 Zr1     41.4930  18.2621   0.0000   Zr       22 RES22   0.0000
  2864 O2A     41.4930  17.2148  -1.9502   O.co2    22 RES22   0.0000
  2865 C2      41.4930  16.5393  -4.2072   C.2      22 RES22   0.0000
  2866 C3      41.4930  16.9013  -5.5418   C.2      22 RES22   0.0000
  2867 H3      41.4930  17.8192  -5.7862   H        22 RES22   0.0000
  2868 C1      41.4930  17.5974  -3.1491   C.2      22 RES22   0.0000
  2869 O2A     41.4930  17.2148   1.9502   O.co2    22 RES22   0.0000
  2870 C2      41.4930  16.5393   4.2072   C.2      22 RES22   0.0000
  2871 C3      41.4930  16.9013   5.5418   C.2      22 RES22   0.0000
  2872 H3      41.4930  17.8192   5.7862   H        22 RES22   0.0000
  2873 C1      41.4930  17.5974   3.1491   C.2      22 RES22   0.0000
  2874 Zr1     41.4930  20.7465  -2.4844   Zr       22 RES22   0.0000
  2875 O2A     41.4930  22.6967  -3.5317   O.co2    22 RES22   0.0000
  2876 C3      41.4930  26.2883  -3.8452   C.2      22 RES22   0.0000
  2877 H3      41.4930  26.5327  -2.9273   H        22 RES22   0.0000
  2878 O1A     40.4453  19.6988  -1.0477   O.3      22 RES22   0.0000
  2879 O2A     41.4930  18.7963  -3.5317   O.co2    22 RES22   0.0000
  2880 C3      41.4930  15.2047  -3.8452   C.2      22 RES22   0.0000
  2881 H3      41.4930  14.9603  -2.9273   H        22 RES22   0.0000
  2882 O1A     42.5407  21.7942  -1.0477   O.3      22 RES22   0.0000
  2883 O2A     41.4930  18.7963   3.5317   O.co2    22 RES22   0.0000
  2884 C3      41.4930  15.2047   3.8452   C.2      22 RES22   0.0000
  2885 H3      41.4930  14.9603   2.9273   H        22 RES22   0.0000
  2886 O1A     40.4453  21.7942   1.0477   O.3      22 RES22   0.0000
  2887 O2A     41.4930  22.6967   3.5317   O.co2    22 RES22   0.0000
  2888 C3      41.4930  26.2883   3.8452   C.2      22 RES22   0.0000
  2889 H3      41.4930  26.5327   2.9273   H        22 RES22   0.0000
  2890 O1A     42.5407  19.6988   1.0477   O.3      22 RES22   0.0000
  2891 O2A     43.4432  24.2782   0.0000   O.co2    22 RES22   0.0000
  2892 C3      47.0348  24.5917   0.0000   C.2      22 RES22   0.0000
  2893 H3      47.2792  23.6738   0.0000   H        22 RES22   0.0000
  2894 O2A     39.5428  24.2782   0.0000   O.co2    22 RES22   0.0000
  2895 C3      35.9512  24.5917   0.0000   C.2      22 RES22   0.0000
  2896 H3      35.7068  23.6738   0.0000   H        22 RES22   0.0000
  2897 O2A     39.5428  17.2148   0.0000   O.co2    22 RES22   0.0000
  2898 C3      35.9512  16.9013   0.0000   C.2      22 RES22   0.0000
  2899 H3      35.7068  17.8192   0.0000   H        22 RES22   0.0000
  2900 O2A     43.4432  17.2148   0.0000   O.co2    22 RES22   0.0000
  2901 C3      47.0348  16.9013   0.0000   C.2      22 RES22   0.0000
  2902 H3      47.2792  17.8192   0.0000   H        22 RES22   0.0000
  2903 O2A     45.0247  20.7465  -1.9502   O.co2    22 RES22   0.0000
  2904 C2      45.7002  20.7465  -4.2072   C.2      22 RES22   0.0000
  2905 C3      45.3382  20.7465  -5.5418   C.2      22 RES22   0.0000
  2906 H3      44.4203  20.7465  -5.7862   H        22 RES22   0.0000
  2907 C1      44.6421  20.7465  -3.1491   C.2      22 RES22   0.0000
  2908 O2A     45.0247  20.7465   1.9502   O.co2    22 RES22   0.0000
  2909 C3      45.3382  20.7465   5.5418   C.2      22 RES22   0.0000
  2910 H3      44.4203  20.7465   5.7862   H        22 RES22   0.0000
  2911 O2A     37.9613  20.7465   1.9502   O.co2    22 RES22   0.0000
  2912 C3      37.6478  20.7465   5.5418   C.2      22 RES22   0.0000
  2913 H3      38.5657  20.7465   5.7862   H        22 RES22   0.0000
  2914 O2A     37.9613  20.7465  -1.9502   O.co2    22 RES22   0.0000
  2915 C2      37.2858  20.7465  -4.2072   C.2      22 RES22   0.0000
  2916 C3      37.6478  20.7465  -5.5418   C.2      22 RES22   0.0000
  2917 H3      38.5657  20.7465  -5.7862   H        22 RES22   0.0000
  2918 C1      38.3439  20.7465  -3.1491   C.2      22 RES22   0.0000
  2919 O2A     39.5428  20.7465  -3.5317   O.co2    22 RES22   0.0000
  2920 C3      35.9512  20.7465  -3.8452   C.2      22 RES22   0.0000
  2921 H3      35.7068  20.7465  -2.9273   H        22 RES22   0.0000
  2922 O2A     43.4432  20.7465  -3.5317   O.co2    22 RES22   0.0000
  2923 C3      47.0348  20.7465  -3.8452   C.2      22 RES22   0.0000
  2924 H3      47.2792  20.7465  -2.9273   H        22 RES22   0.0000
  2925 C3      41.4930  14.2184  -4.8314   C.2      22 RES22   0.0000
  2926 C3      41.4930  14.2184   4.8314   C.2      22 RES22   0.0000
  2927 C3      41.4930  27.2746   4.8314   C.2      22 RES22   0.0000
  2928 C3      41.4930  27.2746  -4.8314   C.2      22 RES22   0.0000
  2929 C3      41.4930  15.9151   6.5281   C.2      22 RES22   0.0000
  2930 C3      41.4930  25.5779   6.5281   C.2      22 RES22   0.0000
  2931 C3      41.4930  25.5779  -6.5281   C.2      22 RES22   0.0000
  2932 C3      41.4930  15.9151  -6.5281   C.2      22 RES22   0.0000
  2933 C3      36.6616  20.7465  -6.5281   C.2      22 RES22   0.0000
  2934 C3      46.3244  20.7465  -6.5281   C.2      22 RES22   0.0000
  2935 C3      46.3244  20.7465   6.5281   C.2      22 RES22   0.0000
  2936 C3      36.6616  20.7465   6.5281   C.2      22 RES22   0.0000
  2937 C3      34.9649  20.7465   4.8314   C.2      22 RES22   0.0000
  2938 C3      34.9649  20.7465  -4.8314   C.2      22 RES22   0.0000
  2939 C3      48.0211  20.7465  -4.8314   C.2      22 RES22   0.0000
  2940 C3      48.0211  20.7465   4.8314   C.2      22 RES22   0.0000
  2941 C3      34.9649  15.9151   0.0000   C.2      22 RES22   0.0000
  2942 C3      34.9649  25.5779   0.0000   C.2      22 RES22   0.0000
  2943 C3      48.0211  25.5779   0.0000   C.2      22 RES22   0.0000
  2944 C3      48.0211  15.9151   0.0000   C.2      22 RES22   0.0000
  2945 C3      36.6616  14.2184   0.0000   C.2      22 RES22   0.0000
  2946 C3      46.3244  14.2184   0.0000   C.2      22 RES22   0.0000
  2947 C3      46.3244  27.2746   0.0000   C.2      22 RES22   0.0000
  2948 C3      36.6616  27.2746   0.0000   C.2      22 RES22   0.0000
  2949 Zr1     41.4930  20.7465  23.2309   Zr       23 RES23   0.0000
  2950 O2A     43.4432  20.7465  24.2782   O.co2    23 RES23   0.0000
  2951 C2      45.7002  20.7465  24.9537   C.2      23 RES23   0.0000
  2952 C3      47.0348  20.7465  24.5917   C.2      23 RES23   0.0000
  2953 H3      47.2792  20.7465  23.6738   H        23 RES23   0.0000
  2954 O1A     40.4453  19.6988  21.7942   O.3      23 RES23   0.0000
  2955 C1      44.6421  20.7465  23.8956   C.2      23 RES23   0.0000
  2956 O2A     39.5428  20.7465  24.2782   O.co2    23 RES23   0.0000
  2957 C2      37.2858  20.7465  24.9537   C.2      23 RES23   0.0000
  2958 C3      35.9512  20.7465  24.5917   C.2      23 RES23   0.0000
  2959 H3      35.7068  20.7465  23.6738   H        23 RES23   0.0000
  2960 O1A     42.5407  21.7942  21.7942   O.3      23 RES23   0.0000
  2961 C1      38.3439  20.7465  23.8956   C.2      23 RES23   0.0000
  2962 Zr1     43.9774  20.7465  20.7465   Zr       23 RES23   0.0000
  2963 O2A     45.0247  22.6967  20.7465   O.co2    23 RES23   0.0000
  2964 C2      45.7002  24.9537  20.7465   C.2      23 RES23   0.0000
  2965 C3      45.3382  26.2883  20.7465   C.2      23 RES23   0.0000
  2966 H3      44.4203  26.5327  20.7465   H        23 RES23   0.0000
  2967 O1A     42.5407  19.6988  19.6988   O.3      23 RES23   0.0000
  2968 C1      44.6421  23.8956  20.7465   C.2      23 RES23   0.0000
  2969 O2A     45.0247  18.7963  20.7465   O.co2    23 RES23   0.0000
  2970 C2      45.7002  16.5393  20.7465   C.2      23 RES23   0.0000
  2971 C3      45.3382  15.2047  20.7465   C.2      23 RES23   0.0000
  2972 H3      44.4203  14.9603  20.7465   H        23 RES23   0.0000
  2973 C1      44.6421  17.5974  20.7465   C.2      23 RES23   0.0000
  2974 Zr1     39.0086  20.7465  20.7465   Zr       23 RES23   0.0000
  2975 O2A     37.9613  18.7963  20.7465   O.co2    23 RES23   0.0000
  2976 C2      37.2858  16.5393  20.7465   C.2      23 RES23   0.0000
  2977 C3      37.6478  15.2047  20.7465   C.2      23 RES23   0.0000
  2978 H3      38.5657  14.9603  20.7465   H        23 RES23   0.0000
  2979 O1A     40.4453  21.7942  19.6988   O.3      23 RES23   0.0000
  2980 C1      38.3439  17.5974  20.7465   C.2      23 RES23   0.0000
  2981 O2A     37.9613  22.6967  20.7465   O.co2    23 RES23   0.0000
  2982 C2      37.2858  24.9537  20.7465   C.2      23 RES23   0.0000
  2983 C3      37.6478  26.2883  20.7465   C.2      23 RES23   0.0000
  2984 H3      38.5657  26.5327  20.7465   H        23 RES23   0.0000
  2985 C1      38.3439  23.8956  20.7465   C.2      23 RES23   0.0000
  2986 Zr1     41.4930  23.2309  20.7465   Zr       23 RES23   0.0000
  2987 O2A     41.4930  24.2782  22.6967   O.co2    23 RES23   0.0000
  2988 C2      41.4930  24.9537  24.9537   C.2      23 RES23   0.0000
  2989 C3      41.4930  24.5917  26.2883   C.2      23 RES23   0.0000
  2990 H3      41.4930  23.6738  26.5327   H        23 RES23   0.0000
  2991 C1      41.4930  23.8956  23.8956   C.2      23 RES23   0.0000
  2992 O2A     41.4930  24.2782  18.7963   O.co2    23 RES23   0.0000
  2993 C2      41.4930  24.9537  16.5393   C.2      23 RES23   0.0000
  2994 C3      41.4930  24.5917  15.2047   C.2      23 RES23   0.0000
  2995 H3      41.4930  23.6738  14.9603   H        23 RES23   0.0000
  2996 C1      41.4930  23.8956  17.5974   C.2      23 RES23   0.0000
  2997 Zr1     41.4930  18.2621  20.7465   Zr       23 RES23   0.0000
  2998 O2A     41.4930  17.2148  18.7963   O.co2    23 RES23   0.0000
  2999 C2      41.4930  16.5393  16.5393   C.2      23 RES23   0.0000
  3000 C3      41.4930  16.9013  15.2047   C.2      23 RES23   0.0000
  3001 H3      41.4930  17.8192  14.9603   H        23 RES23   0.0000
  3002 C1      41.4930  17.5974  17.5974   C.2      23 RES23   0.0000
  3003 O2A     41.4930  17.2148  22.6967   O.co2    23 RES23   0.0000
  3004 C2      41.4930  16.5393  24.9537   C.2      23 RES23   0.0000
  3005 C3      41.4930  16.9013  26.2883   C.2      23 RES23   0.0000
  3006 H3      41.4930  17.8192  26.5327   H        23 RES23   0.0000
  3007 C1      41.4930  17.5974  23.8956   C.2      23 RES23   0.0000
  3008 Zr1     41.4930  20.7465  18.2621   Zr       23 RES23   0.0000
  3009 O2A     41.4930  22.6967  17.2148   O.co2    23 RES23   0.0000
  3010 C3      41.4930  26.2883  16.9013   C.2      23 RES23   0.0000
  3011 H3      41.4930  26.5327  17.8192   H        23 RES23   0.0000
  3012 O1A     40.4453  19.6988  19.6988   O.3      23 RES23   0.0000
  3013 O2A     41.4930  18.7963  17.2148   O.co2    23 RES23   0.0000
  3014 C3      41.4930  15.2047  16.9013   C.2      23 RES23   0.0000
  3015 H3      41.4930  14.9603  17.8192   H        23 RES23   0.0000
  3016 O1A     42.5407  21.7942  19.6988   O.3      23 RES23   0.0000
  3017 O2A     41.4930  18.7963  24.2782   O.co2    23 RES23   0.0000
  3018 C3      41.4930  15.2047  24.5917   C.2      23 RES23   0.0000
  3019 H3      41.4930  14.9603  23.6738   H        23 RES23   0.0000
  3020 O1A     40.4453  21.7942  21.7942   O.3      23 RES23   0.0000
  3021 O2A     41.4930  22.6967  24.2782   O.co2    23 RES23   0.0000
  3022 C3      41.4930  26.2883  24.5917   C.2      23 RES23   0.0000
  3023 H3      41.4930  26.5327  23.6738   H        23 RES23   0.0000
  3024 O1A     42.5407  19.6988  21.7942   O.3      23 RES23   0.0000
  3025 O2A     43.4432  24.2782  20.7465   O.co2    23 RES23   0.0000
  3026 C3      47.0348  24.5917  20.7465   C.2      23 RES23   0.0000
  3027 H3      47.2792  23.6738  20.7465   H        23 RES23   0.0000
  3028 O2A     39.5428  24.2782  20.7465   O.co2    23 RES23   0.0000
  3029 C3      35.9512  24.5917  20.7465   C.2      23 RES23   0.0000
  3030 H3      35.7068  23.6738  20.7465   H        23 RES23   0.0000
  3031 O2A     39.5428  17.2148  20.7465   O.co2    23 RES23   0.0000
  3032 C3      35.9512  16.9013  20.7465   C.2      23 RES23   0.0000
  3033 H3      35.7068  17.8192  20.7465   H        23 RES23   0.0000
  3034 O2A     43.4432  17.2148  20.7465   O.co2    23 RES23   0.0000
  3035 C3      47.0348  16.9013  20.7465   C.2      23 RES23   0.0000
  3036 H3      47.2792  17.8192  20.7465   H        23 RES23   0.0000
  3037 O2A     45.0247  20.7465  18.7963   O.co2    23 RES23   0.0000
  3038 C2      45.7002  20.7465  16.5393   C.2      23 RES23   0.0000
  3039 C3      45.3382  20.7465  15.2047   C.2      23 RES23   0.0000
  3040 H3      44.4203  20.7465  14.9603   H        23 RES23   0.0000
  3041 C1      44.6421  20.7465  17.5974   C.2      23 RES23   0.0000
  3042 O2A     45.0247  20.7465  22.6967   O.co2    23 RES23   0.0000
  3043 C3      45.3382  20.7465  26.2883   C.2      23 RES23   0.0000
  3044 H3      44.4203  20.7465  26.5327   H        23 RES23   0.0000
  3045 O2A     37.9613  20.7465  22.6967   O.co2    23 RES23   0.0000
  3046 C3      37.6478  20.7465  26.2883   C.2      23 RES23   0.0000
  3047 H3      38.5657  20.7465  26.5327   H        23 RES23   0.0000
  3048 O2A     37.9613  20.7465  18.7963   O.co2    23 RES23   0.0000
  3049 C2      37.2858  20.7465  16.5393   C.2      23 RES23   0.0000
  3050 C3      37.6478  20.7465  15.2047   C.2      23 RES23   0.0000
  3051 H3      38.5657  20.7465  14.9603   H        23 RES23   0.0000
  3052 C1      38.3439  20.7465  17.5974   C.2      23 RES23   0.0000
  3053 O2A     39.5428  20.7465  17.2148   O.co2    23 RES23   0.0000
  3054 C3      35.9512  20.7465  16.9013   C.2      23 RES23   0.0000
  3055 H3      35.7068  20.7465  17.8192   H        23 RES23   0.0000
  3056 O2A     43.4432  20.7465  17.2148   O.co2    23 RES23   0.0000
  3057 C3      47.0348  20.7465  16.9013   C.2      23 RES23   0.0000
  3058 H3      47.2792  20.7465  17.8192   H        23 RES23   0.0000
  3059 C3      41.4930  14.2184  15.9151   C.2      23 RES23   0.0000
  3060 C3      41.4930  14.2184  25.5779   C.2      23 RES23   0.0000
  3061 C3      41.4930  27.2746  25.5779   C.2      23 RES23   0.0000
  3062 C3      41.4930  27.2746  15.9151   C.2      23 RES23   0.0000
  3063 C3      41.4930  15.9151  27.2746   C.2      23 RES23   0.0000
  3064 C3      41.4930  25.5779  27.2746   C.2      23 RES23   0.0000
  3065 C3      41.4930  25.5779  14.2184   C.2      23 RES23   0.0000
  3066 C3      41.4930  15.9151  14.2184   C.2      23 RES23   0.0000
  3067 C3      36.6616  20.7465  14.2184   C.2      23 RES23   0.0000
  3068 C3      46.3244  20.7465  14.2184   C.2      23 RES23   0.0000
  3069 C3      46.3244  20.7465  27.2746   C.2      23 RES23   0.0000
  3070 C3      36.6616  20.7465  27.2746   C.2      23 RES23   0.0000
  3071 C3      34.9649  20.7465  25.5779   C.2      23 RES23   0.0000
  3072 C3      34.9649  20.7465  15.9151   C.2      23 RES23   0.0000
  3073 C3      48.0211  20.7465  15.9151   C.2      23 RES23   0.0000
  3074 C3      48.0211  20.7465  25.5779   C.2      23 RES23   0.0000
  3075 C3      34.9649  15.9151  20.7465   C.2      23 RES23   0.0000
  3076 C3      34.9649  25.5779  20.7465   C.2      23 RES23   0.0000
  3077 C3      48.0211  25.5779  20.7465   C.2      23 RES23   0.0000
  3078 C3      48.0211  15.9151  20.7465   C.2      23 RES23   0.0000
  3079 C3      36.6616  14.2184  20.7465   C.2      23 RES23   0.0000
  3080 C3      46.3244  14.2184  20.7465   C.2      23 RES23   0.0000
  3081 C3      46.3244  27.2746  20.7465   C.2      23 RES23   0.0000
  3082 C3      36.6616  27.2746  20.7465   C.2      23 RES23   0.0000
  3083 Zr1     41.4930  20.7465  43.9774   Zr       24 RES24   0.0000
  3084 O2A     43.4432  20.7465  45.0247   O.co2    24 RES24   0.0000
  3085 C2      45.7002  20.7465  45.7002   C.2      24 RES24   0.0000
  3086 C3      47.0348  20.7465  45.3382   C.2      24 RES24   0.0000
  3087 H3      47.2792  20.7465  44.4203   H        24 RES24   0.0000
  3088 O1A     40.4453  19.6988  42.5407   O.3      24 RES24   0.0000
  3089 C1      44.6421  20.7465  44.6421   C.2      24 RES24   0.0000
  3090 O2A     39.5428  20.7465  45.0247   O.co2    24 RES24   0.0000
  3091 C2      37.2858  20.7465  45.7002   C.2      24 RES24   0.0000
  3092 C3      35.9512  20.7465  45.3382   C.2      24 RES24   0.0000
  3093 H3      35.7068  20.7465  44.4203   H        24 RES24   0.0000
  3094 O1A     42.5407  21.7942  42.5407   O.3      24 RES24   0.0000
  3095 C1      38.3439  20.7465  44.6421   C.2      24 RES24   0.0000
  3096 Zr1     43.9774  20.7465  41.4930   Zr       24 RES24   0.0000
  3097 O2A     45.0247  22.6967  41.4930   O.co2    24 RES24   0.0000
  3098 C2      45.7002  24.9537  41.4930   C.2      24 RES24   0.0000
  3099 C3      45.3382  26.2883  41.4930   C.2      24 RES24   0.0000
  3100 H3      44.4203  26.5327  41.4930   H        24 RES24   0.0000
  3101 O1A     42.5407  19.6988  40.4453   O.3      24 RES24   0.0000
  3102 C1      44.6421  23.8956  41.4930   C.2      24 RES24   0.0000
  3103 O2A     45.0247  18.7963  41.4930   O.co2    24 RES24   0.0000
  3104 C2      45.7002  16.5393  41.4930   C.2      24 RES24   0.0000
  3105 C3      45.3382  15.2047  41.4930   C.2      24 RES24   0.0000
  3106 H3      44.4203  14.9603  41.4930   H        24 RES24   0.0000
  3107 C1      44.6421  17.5974  41.4930   C.2      24 RES24   0.0000
  3108 Zr1     39.0086  20.7465  41.4930   Zr       24 RES24   0.0000
  3109 O2A     37.9613  18.7963  41.4930   O.co2    24 RES24   0.0000
  3110 C2      37.2858  16.5393  41.4930   C.2      24 RES24   0.0000
  3111 C3      37.6478  15.2047  41.4930   C.2      24 RES24   0.0000
  3112 H3      38.5657  14.9603  41.4930   H        24 RES24   0.0000
  3113 O1A     40.4453  21.7942  40.4453   O.3      24 RES24   0.0000
  3114 C1      38.3439  17.5974  41.4930   C.2      24 RES24   0.0000
  3115 O2A     37.9613  22.6967  41.4930   O.co2    24 RES24   0.0000
  3116 C2      37.2858  24.9537  41.4930   C.2      24 RES24   0.0000
  3117 C3      37.6478  26.2883  41.4930   C.2      24 RES24   0.0000
  3118 H3      38.5657  26.5327  41.4930   H        24 RES24   0.0000
  3119 C1      38.3439  23.8956  41.4930   C.2      24 RES24   0.0000
  3120 Zr1     41.4930  23.2309  41.4930   Zr       24 RES24   0.0000
  3121 O2A     41.4930  24.2782  43.4432   O.co2    24 RES24   0.0000
  3122 C2      41.4930  24.9537  45.7002   C.2      24 RES24   0.0000
  3123 C3      41.4930  24.5917  47.0348   C.2      24 RES24   0.0000
  3124 H3      41.4930  23.6738  47.2792   H        24 RES24   0.0000
  3125 C1      41.4930  23.8956  44.6421   C.2      24 RES24   0.0000
  3126 O2A     41.4930  24.2782  39.5428   O.co2    24 RES24   0.0000
  3127 C2      41.4930  24.9537  37.2858   C.2      24 RES24   0.0000
  3128 C3      41.4930  24.5917  35.9512   C.2      24 RES24   0.0000
  3129 H3      41.4930  23.6738  35.7068   H        24 RES24   0.0000
  3130 C1      41.4930  23.8956  38.3439   C.2      24 RES24   0.0000
  3131 Zr1     41.4930  18.2621  41.4930   Zr       24 RES24   0.0000
  3132 O2A     41.4930  17.2148  39.5428   O.co2    24 RES24   0.0000
  3133 C2      41.4930  16.5393  37.2858   C.2      24 RES24   0.0000
  3134 C3      41.4930  16.9013  35.9512   C.2      24 RES24   0.0000
  3135 H3      41.4930  17.8192  35.7068   H        24 RES24   0.0000
  3136 C1      41.4930  17.5974  38.3439   C.2      24 RES24   0.0000
  3137 O2A     41.4930  17.2148  43.4432   O.co2    24 RES24   0.0000
  3138 C2      41.4930  16.5393  45.7002   C.2      24 RES24   0.0000
  3139 C3      41.4930  16.9013  47.0348   C.2      24 RES24   0.0000
  3140 H3      41.4930  17.8192  47.2792   H        24 RES24   0.0000
  3141 C1      41.4930  17.5974  44.6421   C.2      24 RES24   0.0000
  3142 Zr1     41.4930  20.7465  39.0086   Zr       24 RES24   0.0000
  3143 O2A     41.4930  22.6967  37.9613   O.co2    24 RES24   0.0000
  3144 C3      41.4930  26.2883  37.6478   C.2      24 RES24   0.0000
  3145 H3      41.4930  26.5327  38.5657   H        24 RES24   0.0000
  3146 O1A     40.4453  19.6988  40.4453   O.3      24 RES24   0.0000
  3147 O2A     41.4930  18.7963  37.9613   O.co2    24 RES24   0.0000
  3148 C3      41.4930  15.2047  37.6478   C.2      24 RES24   0.0000
  3149 H3      41.4930  14.9603  38.5657   H        24 RES24   0.0000
  3150 O1A     42.5407  21.7942  40.4453   O.3      24 RES24   0.0000
  3151 O2A     41.4930  18.7963  45.0247   O.co2    24 RES24   0.0000
  3152 C3      41.4930  15.2047  45.3382   C.2      24 RES24   0.0000
  3153 H3      41.4930  14.9603  44.4203   H        24 RES24   0.0000
  3154 O1A     40.4453  21.7942  42.5407   O.3      24 RES24   0.0000
  3155 O2A     41.4930  22.6967  45.0247   O.co2    24 RES24   0.0000
  3156 C3      41.4930  26.2883  45.3382   C.2      24 RES24   0.0000
  3157 H3      41.4930  26.5327  44.4203   H        24 RES24   0.0000
  3158 O1A     42.5407  19.6988  42.5407   O.3      24 RES24   0.0000
  3159 O2A     43.4432  24.2782  41.4930   O.co2    24 RES24   0.0000
  3160 C3      47.0348  24.5917  41.4930   C.2      24 RES24   0.0000
  3161 H3      47.2792  23.6738  41.4930   H        24 RES24   0.0000
  3162 O2A     39.5428  24.2782  41.4930   O.co2    24 RES24   0.0000
  3163 C3      35.9512  24.5917  41.4930   C.2      24 RES24   0.0000
  3164 H3      35.7068  23.6738  41.4930   H        24 RES24   0.0000
  3165 O2A     39.5428  17.2148  41.4930   O.co2    24 RES24   0.0000
  3166 C3      35.9512  16.9013  41.4930   C.2      24 RES24   0.0000
  3167 H3      35.7068  17.8192  41.4930   H        24 RES24   0.0000
  3168 O2A     43.4432  17.2148  41.4930   O.co2    24 RES24   0.0000
  3169 C3      47.0348  16.9013  41.4930   C.2      24 RES24   0.0000
  3170 H3      47.2792  17.8192  41.4930   H        24 RES24   0.0000
  3171 O2A     45.0247  20.7465  39.5428   O.co2    24 RES24   0.0000
  3172 C2      45.7002  20.7465  37.2858   C.2      24 RES24   0.0000
  3173 C3      45.3382  20.7465  35.9512   C.2      24 RES24   0.0000
  3174 H3      44.4203  20.7465  35.7068   H        24 RES24   0.0000
  3175 C1      44.6421  20.7465  38.3439   C.2      24 RES24   0.0000
  3176 O2A     45.0247  20.7465  43.4432   O.co2    24 RES24   0.0000
  3177 C3      45.3382  20.7465  47.0348   C.2      24 RES24   0.0000
  3178 H3      44.4203  20.7465  47.2792   H        24 RES24   0.0000
  3179 O2A     37.9613  20.7465  43.4432   O.co2    24 RES24   0.0000
  3180 C3      37.6478  20.7465  47.0348   C.2      24 RES24   0.0000
  3181 H3      38.5657  20.7465  47.2792   H        24 RES24   0.0000
  3182 O2A     37.9613  20.7465  39.5428   O.co2    24 RES24   0.0000
  3183 C2      37.2858  20.7465  37.2858   C.2      24 RES24   0.0000
  3184 C3      37.6478  20.7465  35.9512   C.2      24 RES24   0.0000
  3185 H3      38.5657  20.7465  35.7068   H        24 RES24   0.0000
  3186 C1      38.3439  20.7465  38.3439   C.2      24 RES24   0.0000
  3187 O2A     39.5428  20.7465  37.9613   O.co2    24 RES24   0.0000
  3188 C3      35.9512  20.7465  37.6478   C.2      24 RES24   0.0000
  3189 H3      35.7068  20.7465  38.5657   H        24 RES24   0.0000
  3190 O2A     43.4432  20.7465  37.9613   O.co2    24 RES24   0.0000
  3191 C3      47.0348  20.7465  37.6478   C.2      24 RES24   0.0000
  3192 H3      47.2792  20.7465  38.5657   H        24 RES24   0.0000
  3193 C3      41.4930  14.2184  36.6616   C.2      24 RES24   0.0000
  3194 C3      41.4930  14.2184  46.3244   C.2      24 RES24   0.0000
  3195 C3      41.4930  27.2746  46.3244   C.2      24 RES24   0.0000
  3196 C3      41.4930  27.2746  36.6616   C.2      24 RES24   0.0000
  3197 C3      41.4930  15.9151  48.0211   C.2      24 RES24   0.0000
  3198 C3      41.4930  25.5779  48.0211   C.2      24 RES24   0.0000
  3199 C3      41.4930  25.5779  34.9649   C.2      24 RES24   0.0000
  3200 C3      41.4930  15.9151  34.9649   C.2      24 RES24   0.0000
  3201 C3      36.6616  20.7465  34.9649   C.2      24 RES24   0.0000
  3202 C3      46.3244  20.7465  34.9649   C.2      24 RES24   0.0000
  3203 C3      46.3244  20.7465  48.0211   C.2      24 RES24   0.0000
  3204 C3      36.6616  20.7465  48.0211   C.2      24 RES24   0.0000
  3205 C3      34.9649  20.7465  46.3244   C.2      24 RES24   0.0000
  3206 C3      34.9649  20.7465  36.6616   C.2      24 RES24   0.0000
  3207 C3      48.0211  20.7465  36.6616   C.2      24 RES24   0.0000
  3208 C3      48.0211  20.7465  46.3244   C.2      24 RES24   0.0000
  3209 C3      34.9649  15.9151  41.4930   C.2      24 RES24   0.0000
  3210 C3      34.9649  25.5779  41.4930   C.2      24 RES24   0.0000
  3211 C3      48.0211  25.5779  41.4930   C.2      24 RES24   0.0000
  3212 C3      48.0211  15.9151  41.4930   C.2      24 RES24   0.0000
  3213 C3      36.6616  14.2184  41.4930   C.2      24 RES24   0.0000
  3214 C3      46.3244  14.2184  41.4930   C.2      24 RES24   0.0000
  3215 C3      46.3244  27.2746  41.4930   C.2      24 RES24   0.0000
  3216 C3      36.6616  27.2746  41.4930   C.2      24 RES24   0.0000
  3217 Zr1     41.4930  41.4930   2.4844   Zr       25 RES25   0.0000
  3218 O2A     43.4432  41.4930   3.5317   O.co2    25 RES25   0.0000
  3219 C2      45.7002  41.4930   4.2072   C.2      25 RES25   0.0000
  3220 C3      47.0348  41.4930   3.8452   C.2      25 RES25   0.0000
  3221 H3      47.2792  41.4930   2.9273   H        25 RES25   0.0000
  3222 O1A     40.4453  40.4453   1.0477   O.3      25 RES25   0.0000
  3223 C1      44.6421  41.4930   3.1491   C.2      25 RES25   0.0000
  3224 O2A     39.5428  41.4930   3.5317   O.co2    25 RES25   0.0000
  3225 C2      37.2858  41.4930   4.2072   C.2      25 RES25   0.0000
  3226 C3      35.9512  41.4930   3.8452   C.2      25 RES25   0.0000
  3227 H3      35.7068  41.4930   2.9273   H        25 RES25   0.0000
  3228 O1A     42.5407  42.5407   1.0477   O.3      25 RES25   0.0000
  3229 C1      38.3439  41.4930   3.1491   C.2      25 RES25   0.0000
  3230 Zr1     43.9774  41.4930   0.0000   Zr       25 RES25   0.0000
  3231 O2A     45.0247  43.4432   0.0000   O.co2    25 RES25   0.0000
  3232 C2      45.7002  45.7002   0.0000   C.2      25 RES25   0.0000
  3233 C3      45.3382  47.0348   0.0000   C.2      25 RES25   0.0000
  3234 H3      44.4203  47.2792   0.0000   H        25 RES25   0.0000
  3235 O1A     42.5407  40.4453  -1.0477   O.3      25 RES25   0.0000
  3236 C1      44.6421  44.6421   0.0000   C.2      25 RES25   0.0000
  3237 O2A     45.0247  39.5428   0.0000   O.co2    25 RES25   0.0000
  3238 C2      45.7002  37.2858   0.0000   C.2      25 RES25   0.0000
  3239 C3      45.3382  35.9512   0.0000   C.2      25 RES25   0.0000
  3240 H3      44.4203  35.7068   0.0000   H        25 RES25   0.0000
  3241 C1      44.6421  38.3439   0.0000   C.2      25 RES25   0.0000
  3242 Zr1     39.0086  41.4930   0.0000   Zr       25 RES25   0.0000
  3243 O2A     37.9613  39.5428   0.0000   O.co2    25 RES25   0.0000
  3244 C2      37.2858  37.2858   0.0000   C.2      25 RES25   0.0000
  3245 C3      37.6478  35.9512   0.0000   C.2      25 RES25   0.0000
  3246 H3      38.5657  35.7068   0.0000   H        25 RES25   0.0000
  3247 O1A     40.4453  42.5407  -1.0477   O.3      25 RES25   0.0000
  3248 C1      38.3439  38.3439   0.0000   C.2      25 RES25   0.0000
  3249 O2A     37.9613  43.4432   0.0000   O.co2    25 RES25   0.0000
  3250 C2      37.2858  45.7002   0.0000   C.2      25 RES25   0.0000
  3251 C3      37.6478  47.0348   0.0000   C.2      25 RES25   0.0000
  3252 H3      38.5657  47.2792   0.0000   H        25 RES25   0.0000
  3253 C1      38.3439  44.6421   0.0000   C.2      25 RES25   0.0000
  3254 Zr1     41.4930  43.9774   0.0000   Zr       25 RES25   0.0000
  3255 O2A     41.4930  45.0247   1.9502   O.co2    25 RES25   0.0000
  3256 C2      41.4930  45.7002   4.2072   C.2      25 RES25   0.0000
  3257 C3      41.4930  45.3382   5.5418   C.2      25 RES25   0.0000
  3258 H3      41.4930  44.4203   5.7862   H        25 RES25   0.0000
  3259 C1      41.4930  44.6421   3.1491   C.2      25 RES25   0.0000
  3260 O2A     41.4930  45.0247  -1.9502   O.co2    25 RES25   0.0000
  3261 C2      41.4930  45.7002  -4.2072   C.2      25 RES25   0.0000
  3262 C3      41.4930  45.3382  -5.5418   C.2      25 RES25   0.0000
  3263 H3      41.4930  44.4203  -5.7862   H        25 RES25   0.0000
  3264 C1      41.4930  44.6421  -3.1491   C.2      25 RES25   0.0000
  3265 Zr1     41.4930  39.0086   0.0000   Zr       25 RES25   0.0000
  3266 O2A     41.4930  37.9613  -1.9502   O.co2    25 RES25   0.0000
  3267 C2      41.4930  37.2858  -4.2072   C.2      25 RES25   0.0000
  3268 C3      41.4930  37.6478  -5.5418   C.2      25 RES25   0.0000
  3269 H3      41.4930  38.5657  -5.7862   H        25 RES25   0.0000
  3270 C1      41.4930  38.3439  -3.1491   C.2      25 RES25   0.0000
  3271 O2A     41.4930  37.9613   1.9502   O.co2    25 RES25   0.0000
  3272 C2      41.4930  37.2858   4.2072   C.2      25 RES25   0.0000
  3273 C3      41.4930  37.6478   5.5418   C.2      25 RES25   0.0000
  3274 H3      41.4930  38.5657   5.7862   H        25 RES25   0.0000
  3275 C1      41.4930  38.3439   3.1491   C.2      25 RES25   0.0000
  3276 Zr1     41.4930  41.4930  -2.4844   Zr       25 RES25   0.0000
  3277 O2A     41.4930  43.4432  -3.5317   O.co2    25 RES25   0.0000
  3278 C3      41.4930  47.0348  -3.8452   C.2      25 RES25   0.0000
  3279 H3      41.4930  47.2792  -2.9273   H        25 RES25   0.0000
  3280 O1A     40.4453  40.4453  -1.0477   O.3      25 RES25   0.0000
  3281 O2A     41.4930  39.5428  -3.5317   O.co2    25 RES25   0.0000
  3282 C3      41.4930  35.9512  -3.8452   C.2      25 RES25   0.0000
  3283 H3      41.4930  35.7068  -2.9273   H        25 RES25   0.0000
  3284 O1A     42.5407  42.5407  -1.0477   O.3      25 RES25   0.0000
  3285 O2A     41.4930  39.5428   3.5317   O.co2    25 RES25   0.0000
  3286 C3      41.4930  35.9512   3.8452   C.2      25 RES25   0.0000
  3287 H3      41.4930  35.7068   2.9273   H        25 RES25   0.0000
  3288 O1A     40.4453  42.5407   1.0477   O.3      25 RES25   0.0000
  3289 O2A     41.4930  43.4432   3.5317   O.co2    25 RES25   0.0000
  3290 C3      41.4930  47.0348   3.8452   C.2      25 RES25   0.0000
  3291 H3      41.4930  47.2792   2.9273   H        25 RES25   0.0000
  3292 O1A     42.5407  40.4453   1.0477   O.3      25 RES25   0.0000
  3293 O2A     43.4432  45.0247   0.0000   O.co2    25 RES25   0.0000
  3294 C3      47.0348  45.3382   0.0000   C.2      25 RES25   0.0000
  3295 H3      47.2792  44.4203   0.0000   H        25 RES25   0.0000
  3296 O2A     39.5428  45.0247   0.0000   O.co2    25 RES25   0.0000
  3297 C3      35.9512  45.3382   0.0000   C.2      25 RES25   0.0000
  3298 H3      35.7068  44.4203   0.0000   H        25 RES25   0.0000
  3299 O2A     39.5428  37.9613   0.0000   O.co2    25 RES25   0.0000
  3300 C3      35.9512  37.6478   0.0000   C.2      25 RES25   0.0000
  3301 H3      35.7068  38.5657   0.0000   H        25 RES25   0.0000
  3302 O2A     43.4432  37.9613   0.0000   O.co2    25 RES25   0.0000
  3303 C3      47.0348  37.6478   0.0000   C.2      25 RES25   0.0000
  3304 H3      47.2792  38.5657   0.0000   H        25 RES25   0.0000
  3305 O2A     45.0247  41.4930  -1.9502   O.co2    25 RES25   0.0000
  3306 C2      45.7002  41.4930  -4.2072   C.2      25 RES25   0.0000
  3307 C3      45.3382  41.4930  -5.5418   C.2      25 RES25   0.0000
  3308 H3      44.4203  41.4930  -5.7862   H        25 RES25   0.0000
  3309 C1      44.6421  41.4930  -3.1491   C.2      25 RES25   0.0000
  3310 O2A     45.0247  41.4930   1.9502   O.co2    25 RES25   0.0000
  3311 C3      45.3382  41.4930   5.5418   C.2      25 RES25   0.0000
  3312 H3      44.4203  41.4930   5.7862   H        25 RES25   0.0000
  3313 O2A     37.9613  41.4930   1.9502   O.co2    25 RES25   0.0000
  3314 C3      37.6478  41.4930   5.5418   C.2      25 RES25   0.0000
  3315 H3      38.5657  41.4930   5.7862   H        25 RES25   0.0000
  3316 O2A     37.9613  41.4930  -1.9502   O.co2    25 RES25   0.0000
  3317 C2      37.2858  41.4930  -4.2072   C.2      25 RES25   0.0000
  3318 C3      37.6478  41.4930  -5.5418   C.2      25 RES25   0.0000
  3319 H3      38.5657  41.4930  -5.7862   H        25 RES25   0.0000
  3320 C1      38.3439  41.4930  -3.1491   C.2      25 RES25   0.0000
  3321 O2A     39.5428  41.4930  -3.5317   O.co2    25 RES25   0.0000
  3322 C3      35.9512  41.4930  -3.8452   C.2      25 RES25   0.0000
  3323 H3      35.7068  41.4930  -2.9273   H        25 RES25   0.0000
  3324 O2A     43.4432  41.4930  -3.5317   O.co2    25 RES25   0.0000
  3325 C3      47.0348  41.4930  -3.8452   C.2      25 RES25   0.0000
  3326 H3      47.2792  41.4930  -2.9273   H        25 RES25   0.0000
  3327 C3      41.4930  34.9649  -4.8314   C.2      25 RES25   0.0000
  3328 C3      41.4930  34.9649   4.8314   C.2      25 RES25   0.0000
  3329 C3      41.4930  48.0211   4.8314   C.2      25 RES25   0.0000
  3330 C3      41.4930  48.0211  -4.8314   C.2      25 RES25   0.0000
  3331 C3      41.4930  36.6616   6.5281   C.2      25 RES25   0.0000
  3332 C3      41.4930  46.3244   6.5281   C.2      25 RES25   0.0000
  3333 C3      41.4930  46.3244  -6.5281   C.2      25 RES25   0.0000
  3334 C3      41.4930  36.6616  -6.5281   C.2      25 RES25   0.0000
  3335 C3      36.6616  41.4930  -6.5281   C.2      25 RES25   0.0000
  3336 C3      46.3244  41.4930  -6.5281   C.2      25 RES25   0.0000
  3337 C3      46.3244  41.4930   6.5281   C.2      25 RES25   0.0000
  3338 C3      36.6616  41.4930   6.5281   C.2      25 RES25   0.0000
  3339 C3      34.9649  41.4930   4.8314   C.2      25 RES25   0.0000
  3340 C3      34.9649  41.4930  -4.8314   C.2      25 RES25   0.0000
  3341 C3      48.0211  41.4930  -4.8314   C.2      25 RES25   0.0000
  3342 C3      48.0211  41.4930   4.8314   C.2      25 RES25   0.0000
  3343 C3      34.9649  36.6616   0.0000   C.2      25 RES25   0.0000
  3344 C3      34.9649  46.3244   0.0000   C.2      25 RES25   0.0000
  3345 C3      48.0211  46.3244   0.0000   C.2      25 RES25   0.0000
  3346 C3      48.0211  36.6616   0.0000   C.2      25 RES25   0.0000
  3347 C3      36.6616  34.9649   0.0000   C.2      25 RES25   0.0000
  3348 C3      46.3244  34.9649   0.0000   C.2      25 RES25   0.0000
  3349 C3      46.3244  48.0211   0.0000   C.2      25 RES25   0.0000
  3350 C3      36.6616  48.0211   0.0000   C.2      25 RES25   0.0000
  3351 Zr1     41.4930  41.4930  23.2309   Zr       26 RES26   0.0000
  3352 O2A     43.4432  41.4930  24.2782   O.co2    26 RES26   0.0000
  3353 C2      45.7002  41.4930  24.9537   C.2      26 RES26   0.0000
  3354 C3      47.0348  41.4930  24.5917   C.2      26 RES26   0.0000
  3355 H3      47.2792  41.4930  23.6738   H        26 RES26   0.0000
  3356 O1A     40.4453  40.4453  21.7942   O.3      26 RES26   0.0000
  3357 C1      44.6421  41.4930  23.8956   C.2      26 RES26   0.0000
  3358 O2A     39.5428  41.4930  24.2782   O.co2    26 RES26   0.0000
  3359 C2      37.2858  41.4930  24.9537   C.2      26 RES26   0.0000
  3360 C3      35.9512  41.4930  24.5917   C.2      26 RES26   0.0000
  3361 H3      35.7068  41.4930  23.6738   H        26 RES26   0.0000
  3362 O1A     42.5407  42.5407  21.7942   O.3      26 RES26   0.0000
  3363 C1      38.3439  41.4930  23.8956   C.2      26 RES26   0.0000
  3364 Zr1     43.9774  41.4930  20.7465   Zr       26 RES26   0.0000
  3365 O2A     45.0247  43.4432  20.7465   O.co2    26 RES26   0.0000
  3366 C2      45.7002  45.7002  20.7465   C.2      26 RES26   0.0000
  3367 C3      45.3382  47.0348  20.7465   C.2      26 RES26   0.0000
  3368 H3      44.4203  47.2792  20.7465   H        26 RES26   0.0000
  3369 O1A     42.5407  40.4453  19.6988   O.3      26 RES26   0.0000
  3370 C1      44.6421  44.6421  20.7465   C.2      26 RES26   0.0000
  3371 O2A     45.0247  39.5428  20.7465   O.co2    26 RES26   0.0000
  3372 C2      45.7002  37.2858  20.7465   C.2      26 RES26   0.0000
  3373 C3      45.3382  35.9512  20.7465   C.2      26 RES26   0.0000
  3374 H3      44.4203  35.7068  20.7465   H        26 RES26   0.0000
  3375 C1      44.6421  38.3439  20.7465   C.2      26 RES26   0.0000
  3376 Zr1     39.0086  41.4930  20.7465   Zr       26 RES26   0.0000
  3377 O2A     37.9613  39.5428  20.7465   O.co2    26 RES26   0.0000
  3378 C2      37.2858  37.2858  20.7465   C.2      26 RES26   0.0000
  3379 C3      37.6478  35.9512  20.7465   C.2      26 RES26   0.0000
  3380 H3      38.5657  35.7068  20.7465   H        26 RES26   0.0000
  3381 O1A     40.4453  42.5407  19.6988   O.3      26 RES26   0.0000
  3382 C1      38.3439  38.3439  20.7465   C.2      26 RES26   0.0000
  3383 O2A     37.9613  43.4432  20.7465   O.co2    26 RES26   0.0000
  3384 C2      37.2858  45.7002  20.7465   C.2      26 RES26   0.0000
  3385 C3      37.6478  47.0348  20.7465   C.2      26 RES26   0.0000
  3386 H3      38.5657  47.2792  20.7465   H        26 RES26   0.0000
  3387 C1      38.3439  44.6421  20.7465   C.2      26 RES26   0.0000
  3388 Zr1     41.4930  43.9774  20.7465   Zr       26 RES26   0.0000
  3389 O2A     41.4930  45.0247  22.6967   O.co2    26 RES26   0.0000
  3390 C2      41.4930  45.7002  24.9537   C.2      26 RES26   0.0000
  3391 C3      41.4930  45.3382  26.2883   C.2      26 RES26   0.0000
  3392 H3      41.4930  44.4203  26.5327   H        26 RES26   0.0000
  3393 C1      41.4930  44.6421  23.8956   C.2      26 RES26   0.0000
  3394 O2A     41.4930  45.0247  18.7963   O.co2    26 RES26   0.0000
  3395 C2      41.4930  45.7002  16.5393   C.2      26 RES26   0.0000
  3396 C3      41.4930  45.3382  15.2047   C.2      26 RES26   0.0000
  3397 H3      41.4930  44.4203  14.9603   H        26 RES26   0.0000
  3398 C1      41.4930  44.6421  17.5974   C.2      26 RES26   0.0000
  3399 Zr1     41.4930  39.0086  20.7465   Zr       26 RES26   0.0000
  3400 O2A     41.4930  37.9613  18.7963   O.co2    26 RES26   0.0000
  3401 C2      41.4930  37.2858  16.5393   C.2      26 RES26   0.0000
  3402 C3      41.4930  37.6478  15.2047   C.2      26 RES26   0.0000
  3403 H3      41.4930  38.5657  14.9603   H        26 RES26   0.0000
  3404 C1      41.4930  38.3439  17.5974   C.2      26 RES26   0.0000
  3405 O2A     41.4930  37.9613  22.6967   O.co2    26 RES26   0.0000
  3406 C2      41.4930  37.2858  24.9537   C.2      26 RES26   0.0000
  3407 C3      41.4930  37.6478  26.2883   C.2      26 RES26   0.0000
  3408 H3      41.4930  38.5657  26.5327   H        26 RES26   0.0000
  3409 C1      41.4930  38.3439  23.8956   C.2      26 RES26   0.0000
  3410 Zr1     41.4930  41.4930  18.2621   Zr       26 RES26   0.0000
  3411 O2A     41.4930  43.4432  17.2148   O.co2    26 RES26   0.0000
  3412 C3      41.4930  47.0348  16.9013   C.2      26 RES26   0.0000
  3413 H3      41.4930  47.2792  17.8192   H        26 RES26   0.0000
  3414 O1A     40.4453  40.4453  19.6988   O.3      26 RES26   0.0000
  3415 O2A     41.4930  39.5428  17.2148   O.co2    26 RES26   0.0000
  3416 C3      41.4930  35.9512  16.9013   C.2      26 RES26   0.0000
  3417 H3      41.4930  35.7068  17.8192   H        26 RES26   0.0000
  3418 O1A     42.5407  42.5407  19.6988   O.3      26 RES26   0.0000
  3419 O2A     41.4930  39.5428  24.2782   O.co2    26 RES26   0.0000
  3420 C3      41.4930  35.9512  24.5917   C.2      26 RES26   0.0000
  3421 H3      41.4930  35.7068  23.6738   H        26 RES26   0.0000
  3422 O1A     40.4453  42.5407  21.7942   O.3      26 RES26   0.0000
  3423 O2A     41.4930  43.4432  24.2782   O.co2    26 RES26   0.0000
  3424 C3      41.4930  47.0348  24.5917   C.2      26 RES26   0.0000
  3425 H3      41.4930  47.2792  23.6738   H        26 RES26   0.0000
  3426 O1A     42.5407  40.4453  21.7942   O.3      26 RES26   0.0000
  3427 O2A     43.4432  45.0247  20.7465   O.co2    26 RES26   0.0000
  3428 C3      47.0348  45.3382  20.7465   C.2      26 RES26   0.0000
  3429 H3      47.2792  44.4203  20.7465   H        26 RES26   0.0000
  3430 O2A     39.5428  45.0247  20.7465   O.co2    26 RES26   0.0000
  3431 C3      35.9512  45.3382  20.7465   C.2      26 RES26   0.0000
  3432 H3      35.7068  44.4203  20.7465   H        26 RES26   0.0000
  3433 O2A     39.5428  37.9613  20.7465   O.co2    26 RES26   0.0000
  3434 C3      35.9512  37.6478  20.7465   C.2      26 RES26   0.0000
  3435 H3      35.7068  38.5657  20.7465   H        26 RES26   0.0000
  3436 O2A     43.4432  37.9613  20.7465   O.co2    26 RES26   0.0000
  3437 C3      47.0348  37.6478  20.7465   C.2      26 RES26   0.0000
  3438 H3      47.2792  38.5657  20.7465   H        26 RES26   0.0000
  3439 O2A     45.0247  41.4930  18.7963   O.co2    26 RES26   0.0000
  3440 C2      45.7002  41.4930  16.5393   C.2      26 RES26   0.0000
  3441 C3      45.3382  41.4930  15.2047   C.2      26 RES26   0.0000
  3442 H3      44.4203  41.4930  14.9603   H        26 RES26   0.0000
  3443 C1      44.6421  41.4930  17.5974   C.2      26 RES26   0.0000
  3444 O2A     45.0247  41.4930  22.6967   O.co2    26 RES26   0.0000
  3445 C3      45.3382  41.4930  26.2883   C.2      26 RES26   0.0000
  3446 H3      44.4203  41.4930  26.5327   H        26 RES26   0.0000
  3447 O2A     37.9613  41.4930  22.6967   O.co2    26 RES26   0.0000
  3448 C3      37.6478  41.4930  26.2883   C.2      26 RES26   0.0000
  3449 H3      38.5657  41.4930  26.5327   H        26 RES26   0.0000
  3450 O2A     37.9613  41.4930  18.7963   O.co2    26 RES26   0.0000
  3451 C2      37.2858  41.4930  16.5393   C.2      26 RES26   0.0000
  3452 C3      37.6478  41.4930  15.2047   C.2      26 RES26   0.0000
  3453 H3      38.5657  41.4930  14.9603   H        26 RES26   0.0000
  3454 C1      38.3439  41.4930  17.5974   C.2      26 RES26   0.0000
  3455 O2A     39.5428  41.4930  17.2148   O.co2    26 RES26   0.0000
  3456 C3      35.9512  41.4930  16.9013   C.2      26 RES26   0.0000
  3457 H3      35.7068  41.4930  17.8192   H        26 RES26   0.0000
  3458 O2A     43.4432  41.4930  17.2148   O.co2    26 RES26   0.0000
  3459 C3      47.0348  41.4930  16.9013   C.2      26 RES26   0.0000
  3460 H3      47.2792  41.4930  17.8192   H        26 RES26   0.0000
  3461 C3      41.4930  34.9649  15.9151   C.2      26 RES26   0.0000
  3462 C3      41.4930  34.9649  25.5779   C.2      26 RES26   0.0000
  3463 C3      41.4930  48.0211  25.5779   C.2      26 RES26   0.0000
  3464 C3      41.4930  48.0211  15.9151   C.2      26 RES26   0.0000
  3465 C3      41.4930  36.6616  27.2746   C.2      26 RES26   0.0000
  3466 C3      41.4930  46.3244  27.2746   C.2      26 RES26   0.0000
  3467 C3      41.4930  46.3244  14.2184   C.2      26 RES26   0.0000
  3468 C3      41.4930  36.6616  14.2184   C.2      26 RES26   0.0000
  3469 C3      36.6616  41.4930  14.2184   C.2      26 RES26   0.0000
  3470 C3      46.3244  41.4930  14.2184   C.2      26 RES26   0.0000
  3471 C3      46.3244  41.4930  27.2746   C.2      26 RES26   0.0000
  3472 C3      36.6616  41.4930  27.2746   C.2      26 RES26   0.0000
  3473 C3      34.9649  41.4930  25.5779   C.2      26 RES26   0.0000
  3474 C3      34.9649  41.4930  15.9151   C.2      26 RES26   0.0000
  3475 C3      48.0211  41.4930  15.9151   C.2      26 RES26   0.0000
  3476 C3      48.0211  41.4930  25.5779   C.2      26 RES26   0.0000
  3477 C3      34.9649  36.6616  20.7465   C.2      26 RES26   0.0000
  3478 C3      34.9649  46.3244  20.7465   C.2      26 RES26   0.0000
  3479 C3      48.0211  46.3244  20.7465   C.2      26 RES26   0.0000
  3480 C3      48.0211  36.6616  20.7465   C.2      26 RES26   0.0000
  3481 C3      36.6616  34.9649  20.7465   C.2      26 RES26   0.0000
  3482 C3      46.3244  34.9649  20.7465   C.2      26 RES26   0.0000
  3483 C3      46.3244  48.0211  20.7465   C.2      26 RES26   0.0000
  3484 C3      36.6616  48.0211  20.7465   C.2      26 RES26   0.0000
  3485 Zr1     41.4930  41.4930  43.9774   Zr       27 RES27   0.0000
  3486 O2A     43.4432  41.4930  45.0247   O.co2    27 RES27   0.0000
  3487 C2      45.7002  41.4930  45.7002   C.2      27 RES27   0.0000
  3488 C3      47.0348  41.4930  45.3382   C.2      27 RES27   0.0000
  3489 H3      47.2792  41.4930  44.4203   H        27 RES27   0.0000
  3490 O1A     40.4453  40.4453  42.5407   O.3      27 RES27   0.0000
  3491 C1      44.6421  41.4930  44.6421   C.2      27 RES27   0.0000
  3492 O2A     39.5428  41.4930  45.0247   O.co2    27 RES27   0.0000
  3493 C2      37.2858  41.4930  45.7002   C.2      27 RES27   0.0000
  3494 C3      35.9512  41.4930  45.3382   C.2      27 RES27   0.0000
  3495 H3      35.7068  41.4930  44.4203   H        27 RES27   0.0000
  3496 O1A     42.5407  42.5407  42.5407   O.3      27 RES27   0.0000
  3497 C1      38.3439  41.4930  44.6421   C.2      27 RES27   0.0000
  3498 Zr1     43.9774  41.4930  41.4930   Zr       27 RES27   0.0000
  3499 O2A     45.0247  43.4432  41.4930   O.co2    27 RES27   0.0000
  3500 C2      45.7002  45.7002  41.4930   C.2      27 RES27   0.0000
  3501 C3      45.3382  47.0348  41.4930   C.2      27 RES27   0.0000
  3502 H3      44.4203  47.2792  41.4930   H        27 RES27   0.0000
  3503 O1A     42.5407  40.4453  40.4453   O.3      27 RES27   0.0000
  3504 C1      44.6421  44.6421  41.4930   C.2      27 RES27   0.0000
  3505 O2A     45.0247  39.5428  41.4930   O.co2    27 RES27   0.0000
  3506 C2      45.7002  37.2858  41.4930   C.2      27 RES27   0.0000
  3507 C3      45.3382  35.9512  41.4930   C.2      27 RES27   0.0000
  3508 H3      44.4203  35.7068  41.4930   H        27 RES27   0.0000
  3509 C1      44.6421  38.3439  41.4930   C.2      27 RES27   0.0000
  3510 Zr1     39.0086  41.4930  41.4930   Zr       27 RES27   0.0000
  3511 O2A     37.9613  39.5428  41.4930   O.co2    27 RES27   0.0000
  3512 C2      37.2858  37.2858  41.4930   C.2      27 RES27   0.0000
  3513 C3      37.6478  35.9512  41.4930   C.2      27 RES27   0.0000
  3514 H3      38.5657  35.7068  41.4930   H        27 RES27   0.0000
  3515 O1A     40.4453  42.5407  40.4453   O.3      27 RES27   0.0000
  3516 C1      38.3439  38.3439  41.4930   C.2      27 RES27   0.0000
  3517 O2A     37.9613  43.4432  41.4930   O.co2    27 RES27   0.0000
  3518 C2      37.2858  45.7002  41.4930   C.2      27 RES27   0.0000
  3519 C3      37.6478  47.0348  41.4930   C.2      27 RES27   0.0000
  3520 H3      38.5657  47.2792  41.4930   H        27 RES27   0.0000
  3521 C1      38.3439  44.6421  41.4930   C.2      27 RES27   0.0000
  3522 Zr1     41.4930  43.9774  41.4930   Zr       27 RES27   0.0000
  3523 O2A     41.4930  45.0247  43.4432   O.co2    27 RES27   0.0000
  3524 C2      41.4930  45.7002  45.7002   C.2      27 RES27   0.0000
  3525 C3      41.4930  45.3382  47.0348   C.2      27 RES27   0.0000
  3526 H3      41.4930  44.4203  47.2792   H        27 RES27   0.0000
  3527 C1      41.4930  44.6421  44.6421   C.2      27 RES27   0.0000
  3528 O2A     41.4930  45.0247  39.5428   O.co2    27 RES27   0.0000
  3529 C2      41.4930  45.7002  37.2858   C.2      27 RES27   0.0000
  3530 C3      41.4930  45.3382  35.9512   C.2      27 RES27   0.0000
  3531 H3      41.4930  44.4203  35.7068   H        27 RES27   0.0000
  3532 C1      41.4930  44.6421  38.3439   C.2      27 RES27   0.0000
  3533 Zr1     41.4930  39.0086  41.4930   Zr       27 RES27   0.0000
  3534 O2A     41.4930  37.9613  39.5428   O.co2    27 RES27   0.0000
  3535 C2      41.4930  37.2858  37.2858   C.2      27 RES27   0.0000
  3536 C3      41.4930  37.6478  35.9512   C.2      27 RES27   0.0000
  3537 H3      41.4930  38.5657  35.7068   H        27 RES27   0.0000
  3538 C1      41.4930  38.3439  38.3439   C.2      27 RES27   0.0000
  3539 O2A     41.4930  37.9613  43.4432   O.co2    27 RES27   0.0000
  3540 C2      41.4930  37.2858  45.7002   C.2      27 RES27   0.0000
  3541 C3      41.4930  37.6478  47.0348   C.2      27 RES27   0.0000
  3542 H3      41.4930  38.5657  47.2792   H        27 RES27   0.0000
  3543 C1      41.4930  38.3439  44.6421   C.2      27 RES27   0.0000
  3544 Zr1     41.4930  41.4930  39.0086   Zr       27 RES27   0.0000
  3545 O2A     41.4930  43.4432  37.9613   O.co2    27 RES27   0.0000
  3546 C3      41.4930  47.0348  37.6478   C.2      27 RES27   0.0000
  3547 H3      41.4930  47.2792  38.5657   H        27 RES27   0.0000
  3548 O1A     40.4453  40.4453  40.4453   O.3      27 RES27   0.0000
  3549 O2A     41.4930  39.5428  37.9613   O.co2    27 RES27   0.0000
  3550 C3      41.4930  35.9512  37.6478   C.2      27 RES27   0.0000
  3551 H3      41.4930  35.7068  38.5657   H        27 RES27   0.0000
  3552 O1A     42.5407  42.5407  40.4453   O.3      27 RES27   0.0000
  3553 O2A     41.4930  39.5428  45.0247   O.co2    27 RES27   0.0000
  3554 C3      41.4930  35.9512  45.3382   C.2      27 RES27   0.0000
  3555 H3      41.4930  35.7068  44.4203   H        27 RES27   0.0000
  3556 O1A     40.4453  42.5407  42.5407   O.3      27 RES27   0.0000
  3557 O2A     41.4930  43.4432  45.0247   O.co2    27 RES27   0.0000
  3558 C3      41.4930  47.0348  45.3382   C.2      27 RES27   0.0000
  3559 H3      41.4930  47.2792  44.4203   H        27 RES27   0.0000
  3560 O1A     42.5407  40.4453  42.5407   O.3      27 RES27   0.0000
  3561 O2A     43.4432  45.0247  41.4930   O.co2    27 RES27   0.0000
  3562 C3      47.0348  45.3382  41.4930   C.2      27 RES27   0.0000
  3563 H3      47.2792  44.4203  41.4930   H        27 RES27   0.0000
  3564 O2A     39.5428  45.0247  41.4930   O.co2    27 RES27   0.0000
  3565 C3      35.9512  45.3382  41.4930   C.2      27 RES27   0.0000
  3566 H3      35.7068  44.4203  41.4930   H        27 RES27   0.0000
  3567 O2A     39.5428  37.9613  41.4930   O.co2    27 RES27   0.0000
  3568 C3      35.9512  37.6478  41.4930   C.2      27 RES27   0.0000
  3569 H3      35.7068  38.5657  41.4930   H        27 RES27   0.0000
  3570 O2A     43.4432  37.9613  41.4930   O.co2    27 RES27   0.0000
  3571 C3      47.0348  37.6478  41.4930   C.2      27 RES27   0.0000
  3572 H3      47.2792  38.5657  41.4930   H        27 RES27   0.0000
  3573 O2A     45.0247  41.4930  39.5428   O.co2    27 RES27   0.0000
  3574 C2      45.7002  41.4930  37.2858   C.2      27 RES27   0.0000
  3575 C3      45.3382  41.4930  35.9512   C.2      27 RES27   0.0000
  3576 H3      44.4203  41.4930  35.7068   H        27 RES27   0.0000
  3577 C1      44.6421  41.4930  38.3439   C.2      27 RES27   0.0000
  3578 O2A     45.0247  41.4930  43.4432   O.co2    27 RES27   0.0000
  3579 C3      45.3382  41.4930  47.0348   C.2      27 RES27   0.0000
  3580 H3      44.4203  41.4930  47.2792   H        27 RES27   0.0000
  3581 O2A     37.9613  41.4930  43.4432   O.co2    27 RES27   0.0000
  3582 C3      37.6478  41.4930  47.0348   C.2      27 RES27   0.0000
  3583 H3      38.5657  41.4930  47.2792   H        27 RES27   0.0000
  3584 O2A     37.9613  41.4930  39.5428   O.co2    27 RES27   0.0000
  3585 C2      37.2858  41.4930  37.2858   C.2      27 RES27   0.0000
  3586 C3      37.6478  41.4930  35.9512   C.2      27 RES27   0.0000
  3587 H3      38.5657  41.4930  35.7068   H        27 RES27   0.0000
  3588 C1      38.3439  41.4930  38.3439   C.2      27 RES27   0.0000
  3589 O2A     39.5428  41.4930  37.9613   O.co2    27 RES27   0.0000
  3590 C3      35.9512  41.4930  37.6478   C.2      27 RES27   0.0000
  3591 H3      35.7068  41.4930  38.5657   H        27 RES27   0.0000
  3592 O2A     43.4432  41.4930  37.9613   O.co2    27 RES27   0.0000
  3593 C3      47.0348  41.4930  37.6478   C.2      27 RES27   0.0000
  3594 H3      47.2792  41.4930  38.5657   H        27 RES27   0.0000
  3595 C3      41.4930  34.9649  36.6616   C.2      27 RES27   0.0000
  3596 C3      41.4930  34.9649  46.3244   C.2      27 RES27   0.0000
  3597 C3      41.4930  48.0211  46.3244   C.2      27 RES27   0.0000
  3598 C3      41.4930  48.0211  36.6616   C.2      27 RES27   0.0000
  3599 C3      41.4930  36.6616  48.0211   C.2      27 RES27   0.0000
  3600 C3      41.4930  46.3244  48.0211   C.2      27 RES27   0.0000
  3601 C3      41.4930  46.3244  34.9649   C.2      27 RES27   0.0000
  3602 C3      41.4930  36.6616  34.9649   C.2      27 RES27   0.0000
  3603 C3      36.6616  41.4930  34.9649   C.2      27 RES27   0.0000
  3604 C3      46.3244  41.4930  34.9649   C.2      27 RES27   0.0000
  3605 C3      46.3244  41.4930  48.0211   C.2      27 RES27   0.0000
  3606 C3      36.6616  41.4930  48.0211   C.2      27 RES27   0.0000
  3607 C3      34.9649  41.4930  46.3244   C.2      27 RES27   0.0000
  3608 C3      34.9649  41.4930  36.6616   C.2      27 RES27   0.0000
  3609 C3      48.0211  41.4930  36.6616   C.2      27 RES27   0.0000
  3610 C3      48.0211  41.4930  46.3244   C.2      27 RES27   0.0000
  3611 C3      34.9649  36.6616  41.4930   C.2      27 RES27   0.0000
  3612 C3      34.9649  46.3244  41.4930   C.2      27 RES27   0.0000
  3613 C3      48.0211  46.3244  41.4930   C.2      27 RES27   0.0000
  3614 C3      48.0211  36.6616  41.4930   C.2      27 RES27   0.0000
  3615 C3      36.6616  34.9649  41.4930   C.2      27 RES27   0.0000
  3616 C3      46.3244  34.9649  41.4930   C.2      27 RES27   0.0000
  3617 C3      46.3244  48.0211  41.4930   C.2      27 RES27   0.0000
  3618 C3      36.6616  48.0211  41.4930   C.2      27 RES27   0.0000
  3619 Zr1      0.0000  10.3733  12.8576   Zr       28 RES28   0.0000
  3620 O2A      1.9502  10.3733  13.9049   O.co2    28 RES28   0.0000
  3621 C2       4.2072  10.3733  14.5804   C.2      28 RES28   0.0000
  3622 C3       5.5418  10.3733  14.2184   C.2      28 RES28   0.0000
  3623 H3       5.7862  10.3733  13.3006   H        28 RES28   0.0000
  3624 O1A     -1.0477   9.3256  11.4209   O.3      28 RES28   0.0000
  3625 C1       3.1491  10.3733  13.5224   C.2      28 RES28   0.0000
  3626 O2A     -1.9502  10.3733  13.9049   O.co2    28 RES28   0.0000
  3627 C2      -4.2072  10.3733  14.5804   C.2      28 RES28   0.0000
  3628 C3      -5.5418  10.3733  14.2184   C.2      28 RES28   0.0000
  3629 H3      -5.7862  10.3733  13.3006   H        28 RES28   0.0000
  3630 O1A      1.0477  11.4209  11.4209   O.3      28 RES28   0.0000
  3631 C1      -3.1491  10.3733  13.5224   C.2      28 RES28   0.0000
  3632 Zr1      2.4844  10.3733  10.3733   Zr       28 RES28   0.0000
  3633 O2A      3.5317  12.3234  10.3733   O.co2    28 RES28   0.0000
  3634 C2       4.2072  14.5804  10.3733   C.2      28 RES28   0.0000
  3635 C3       3.8452  15.9151  10.3733   C.2      28 RES28   0.0000
  3636 H3       2.9273  16.1594  10.3733   H        28 RES28   0.0000
  3637 O1A      1.0477   9.3256   9.3256   O.3      28 RES28   0.0000
  3638 C1       3.1491  13.5224  10.3733   C.2      28 RES28   0.0000
  3639 O2A      3.5317   8.4231  10.3733   O.co2    28 RES28   0.0000
  3640 C2       4.2072   6.1661  10.3733   C.2      28 RES28   0.0000
  3641 C3       3.8452   4.8314  10.3733   C.2      28 RES28   0.0000
  3642 H3       2.9273   4.5871  10.3733   H        28 RES28   0.0000
  3643 C1       3.1491   7.2241  10.3733   C.2      28 RES28   0.0000
  3644 Zr1     -2.4844  10.3733  10.3733   Zr       28 RES28   0.0000
  3645 O2A     -3.5317   8.4231  10.3733   O.co2    28 RES28   0.0000
  3646 C2      -4.2072   6.1661  10.3733   C.2      28 RES28   0.0000
  3647 C3      -3.8452   4.8314  10.3733   C.2      28 RES28   0.0000
  3648 H3      -2.9273   4.5871  10.3733   H        28 RES28   0.0000
  3649 O1A     -1.0477  11.4209   9.3256   O.3      28 RES28   0.0000
  3650 C1      -3.1491   7.2241  10.3733   C.2      28 RES28   0.0000
  3651 O2A     -3.5317  12.3234  10.3733   O.co2    28 RES28   0.0000
  3652 C2      -4.2072  14.5804  10.3733   C.2      28 RES28   0.0000
  3653 C3      -3.8452  15.9151  10.3733   C.2      28 RES28   0.0000
  3654 H3      -2.9273  16.1594  10.3733   H        28 RES28   0.0000
  3655 C1      -3.1491  13.5224  10.3733   C.2      28 RES28   0.0000
  3656 Zr1      0.0000  12.8576  10.3733   Zr       28 RES28   0.0000
  3657 O2A      0.0000  13.9049  12.3234   O.co2    28 RES28   0.0000
  3658 C2       0.0000  14.5804  14.5804   C.2      28 RES28   0.0000
  3659 C3       0.0000  14.2184  15.9151   C.2      28 RES28   0.0000
  3660 H3       0.0000  13.3006  16.1594   H        28 RES28   0.0000
  3661 C1       0.0000  13.5224  13.5224   C.2      28 RES28   0.0000
  3662 O2A      0.0000  13.9049   8.4231   O.co2    28 RES28   0.0000
  3663 C2       0.0000  14.5804   6.1661   C.2      28 RES28   0.0000
  3664 C3       0.0000  14.2184   4.8314   C.2      28 RES28   0.0000
  3665 H3       0.0000  13.3006   4.5871   H        28 RES28   0.0000
  3666 C1       0.0000  13.5224   7.2241   C.2      28 RES28   0.0000
  3667 Zr1      0.0000   7.8889  10.3733   Zr       28 RES28   0.0000
  3668 O2A      0.0000   6.8416   8.4231   O.co2    28 RES28   0.0000
  3669 C2       0.0000   6.1661   6.1661   C.2      28 RES28   0.0000
  3670 C3       0.0000   6.5281   4.8314   C.2      28 RES28   0.0000
  3671 H3       0.0000   7.4459   4.5871   H        28 RES28   0.0000
  3672 C1       0.0000   7.2241   7.2241   C.2      28 RES28   0.0000
  3673 O2A      0.0000   6.8416  12.3234   O.co2    28 RES28   0.0000
  3674 C2       0.0000   6.1661  14.5804   C.2      28 RES28   0.0000
  3675 C3       0.0000   6.5281  15.9151   C.2      28 RES28   0.0000
  3676 H3       0.0000   7.4459  16.1594   H        28 RES28   0.0000
  3677 C1       0.0000   7.2241  13.5224   C.2      28 RES28   0.0000
  3678 Zr1      0.0000  10.3733   7.8889   Zr       28 RES28   0.0000
  3679 O2A      0.0000  12.3234   6.8416   O.co2    28 RES28   0.0000
  3680 C3       0.0000  15.9151   6.5281   C.2      28 RES28   0.0000
  3681 H3       0.0000  16.1594   7.4459   H        28 RES28   0.0000
  3682 O1A     -1.0477   9.3256   9.3256   O.3      28 RES28   0.0000
  3683 O2A      0.0000   8.4231   6.8416   O.co2    28 RES28   0.0000
  3684 C3       0.0000   4.8314   6.5281   C.2      28 RES28   0.0000
  3685 H3       0.0000   4.5871   7.4459   H        28 RES28   0.0000
  3686 O1A      1.0477  11.4209   9.3256   O.3      28 RES28   0.0000
  3687 O2A      0.0000   8.4231  13.9049   O.co2    28 RES28   0.0000
  3688 C3       0.0000   4.8314  14.2184   C.2      28 RES28   0.0000
  3689 H3       0.0000   4.5871  13.3006   H        28 RES28   0.0000
  3690 O1A     -1.0477  11.4209  11.4209   O.3      28 RES28   0.0000
  3691 O2A      0.0000  12.3234  13.9049   O.co2    28 RES28   0.0000
  3692 C3       0.0000  15.9151  14.2184   C.2      28 RES28   0.0000
  3693 H3       0.0000  16.1594  13.3006   H        28 RES28   0.0000
  3694 O1A      1.0477   9.3256  11.4209   O.3      28 RES28   0.0000
  3695 O2A      1.9502  13.9049  10.3733   O.co2    28 RES28   0.0000
  3696 C3       5.5418  14.2184  10.3733   C.2      28 RES28   0.0000
  3697 H3       5.7862  13.3006  10.3733   H        28 RES28   0.0000
  3698 O2A     -1.9502  13.9049  10.3733   O.co2    28 RES28   0.0000
  3699 C3      -5.5418  14.2184  10.3733   C.2      28 RES28   0.0000
  3700 H3      -5.7862  13.3006  10.3733   H        28 RES28   0.0000
  3701 O2A     -1.9502   6.8416  10.3733   O.co2    28 RES28   0.0000
  3702 C3      -5.5418   6.5281  10.3733   C.2      28 RES28   0.0000
  3703 H3      -5.7862   7.4459  10.3733   H        28 RES28   0.0000
  3704 O2A      1.9502   6.8416  10.3733   O.co2    28 RES28   0.0000
  3705 C3       5.5418   6.5281  10.3733   C.2      28 RES28   0.0000
  3706 H3       5.7862   7.4459  10.3733   H        28 RES28   0.0000
  3707 O2A      3.5317  10.3733   8.4231   O.co2    28 RES28   0.0000
  3708 C2       4.2072  10.3733   6.1661   C.2      28 RES28   0.0000
  3709 C3       3.8452  10.3733   4.8314   C.2      28 RES28   0.0000
  3710 H3       2.9273  10.3733   4.5871   H        28 RES28   0.0000
  3711 C1       3.1491  10.3733   7.2241   C.2      28 RES28   0.0000
  3712 O2A      3.5317  10.3733  12.3234   O.co2    28 RES28   0.0000
  3713 C3       3.8452  10.3733  15.9151   C.2      28 RES28   0.0000
  3714 H3       2.9273  10.3733  16.1594   H        28 RES28   0.0000
  3715 O2A     -3.5317  10.3733  12.3234   O.co2    28 RES28   0.0000
  3716 C3      -3.8452  10.3733  15.9151   C.2      28 RES28   0.0000
  3717 H3      -2.9273  10.3733  16.1594   H        28 RES28   0.0000
  3718 O2A     -3.5317  10.3733   8.4231   O.co2    28 RES28   0.0000
  3719 C2      -4.2072  10.3733   6.1661   C.2      28 RES28   0.0000
  3720 C3      -3.8452  10.3733   4.8314   C.2      28 RES28   0.0000
  3721 H3      -2.9273  10.3733   4.5871   H        28 RES28   0.0000
  3722 C1      -3.1491  10.3733   7.2241   C.2      28 RES28   0.0000
  3723 O2A     -1.9502  10.3733   6.8416   O.co2    28 RES28   0.0000
  3724 C3      -5.5418  10.3733   6.5281   C.2      28 RES28   0.0000
  3725 H3      -5.7862  10.3733   7.4459   H        28 RES28   0.0000
  3726 O2A      1.9502  10.3733   6.8416   O.co2    28 RES28   0.0000
  3727 C3       5.5418  10.3733   6.5281   C.2      28 RES28   0.0000
  3728 H3       5.7862  10.3733   7.4459   H        28 RES28   0.0000
  3729 C3       0.0000   3.8452   5.5418   C.2      28 RES28   0.0000
  3730 C3       0.0000   3.8452  15.2047   C.2      28 RES28   0.0000
  3731 C3       0.0000  16.9013  15.2047   C.2      28 RES28   0.0000
  3732 C3       0.0000  16.9013   5.5418   C.2      28 RES28   0.0000
  3733 C3       0.0000   5.5418  16.9013   C.2      28 RES28   0.0000
  3734 C3       0.0000  15.2047  16.9013   C.2      28 RES28   0.0000
  3735 C3       0.0000  15.2047   3.8452   C.2      28 RES28   0.0000
  3736 C3       0.0000   5.5418   3.8452   C.2      28 RES28   0.0000
  3737 C3      -4.8314  10.3733   3.8452   C.2      28 RES28   0.0000
  3738 C3       4.8314  10.3733   3.8452   C.2      28 RES28   0.0000
  3739 C3       4.8314  10.3733  16.9013   C.2      28 RES28   0.0000
  3740 C3      -4.8314  10.3733  16.9013   C.2      28 RES28   0.0000
  3741 C3      -6.5281  10.3733  15.2047   C.2      28 RES28   0.0000
  3742 C3      -6.5281  10.3733   5.5418   C.2      28 RES28   0.0000
  3743 C3       6.5281  10.3733   5.5418   C.2      28 RES28   0.0000
  3744 C3       6.5281  10.3733  15.2047   C.2      28 RES28   0.0000
  3745 C3      -6.5281   5.5418  10.3733   C.2      28 RES28   0.0000
  3746 C3      -6.5281  15.2047  10.3733   C.2      28 RES28   0.0000
  3747 C3       6.5281  15.2047  10.3733   C.2      28 RES28   0.0000
  3748 C3       6.5281   5.5418  10.3733   C.2      28 RES28   0.0000
  3749 C3      -4.8314   3.8452  10.3733   C.2      28 RES28   0.0000
  3750 C3       4.8314   3.8452  10.3733   C.2      28 RES28   0.0000
  3751 C3       4.8314  16.9013  10.3733   C.2      28 RES28   0.0000
  3752 C3      -4.8314  16.9013  10.3733   C.2      28 RES28   0.0000
  3753 Zr1      0.0000  10.3733  33.6041   Zr       29 RES29   0.0000
  3754 O2A      1.9502  10.3733  34.6514   O.co2    29 RES29   0.0000
  3755 C2       4.2072  10.3733  35.3269   C.2      29 RES29   0.0000
  3756 C3       5.5418  10.3733  34.9649   C.2      29 RES29   0.0000
  3757 H3       5.7862  10.3733  34.0471   H        29 RES29   0.0000
  3758 O1A     -1.0477   9.3256  32.1674   O.3      29 RES29   0.0000
  3759 C1       3.1491  10.3733  34.2689   C.2      29 RES29   0.0000
  3760 O2A     -1.9502  10.3733  34.6514   O.co2    29 RES29   0.0000
  3761 C2      -4.2072  10.3733  35.3269   C.2      29 RES29   0.0000
  3762 C3      -5.5418  10.3733  34.9649   C.2      29 RES29   0.0000
  3763 H3      -5.7862  10.3733  34.0471   H        29 RES29   0.0000
  3764 O1A      1.0477  11.4209  32.1674   O.3      29 RES29   0.0000
  3765 C1      -3.1491  10.3733  34.2689   C.2      29 RES29   0.0000
  3766 Zr1      2.4844  10.3733  31.1198   Zr       29 RES29   0.0000
  3767 O2A      3.5317  12.3234  31.1198   O.co2    29 RES29   0.0000
  3768 C2       4.2072  14.5804  31.1198   C.2      29 RES29   0.0000
  3769 C3       3.8452  15.9151  31.1198   C.2      29 RES29   0.0000
  3770 H3       2.9273  16.1594  31.1198   H        29 RES29   0.0000
  3771 O1A      1.0477   9.3256  30.0721   O.3      29 RES29   0.0000
  3772 C1       3.1491  13.5224  31.1198   C.2      29 RES29   0.0000
  3773 O2A      3.5317   8.4231  31.1198   O.co2    29 RES29   0.0000
  3774 C2       4.2072   6.1661  31.1198   C.2      29 RES29   0.0000
  3775 C3       3.8452   4.8314  31.1198   C.2      29 RES29   0.0000
  3776 H3       2.9273   4.5871  31.1198   H        29 RES29   0.0000
  3777 C1       3.1491   7.2241  31.1198   C.2      29 RES29   0.0000
  3778 Zr1     -2.4844  10.3733  31.1198   Zr       29 RES29   0.0000
  3779 O2A     -3.5317   8.4231  31.1198   O.co2    29 RES29   0.0000
  3780 C2      -4.2072   6.1661  31.1198   C.2      29 RES29   0.0000
  3781 C3      -3.8452   4.8314  31.1198   C.2      29 RES29   0.0000
  3782 H3      -2.9273   4.5871  31.1198   H        29 RES29   0.0000
  3783 O1A     -1.0477  11.4209  30.0721   O.3      29 RES29   0.0000
  3784 C1      -3.1491   7.2241  31.1198   C.2      29 RES29   0.0000
  3785 O2A     -3.5317  12.3234  31.1198   O.co2    29 RES29   0.0000
  3786 C2      -4.2072  14.5804  31.1198   C.2      29 RES29   0.0000
  3787 C3      -3.8452  15.9151  31.1198   C.2      29 RES29   0.0000
  3788 H3      -2.9273  16.1594  31.1198   H        29 RES29   0.0000
  3789 C1      -3.1491  13.5224  31.1198   C.2      29 RES29   0.0000
  3790 Zr1      0.0000  12.8576  31.1198   Zr       29 RES29   0.0000
  3791 O2A      0.0000  13.9049  33.0699   O.co2    29 RES29   0.0000
  3792 C2       0.0000  14.5804  35.3269   C.2      29 RES29   0.0000
  3793 C3       0.0000  14.2184  36.6616   C.2      29 RES29   0.0000
  3794 H3       0.0000  13.3006  36.9059   H        29 RES29   0.0000
  3795 C1       0.0000  13.5224  34.2689   C.2      29 RES29   0.0000
  3796 O2A      0.0000  13.9049  29.1696   O.co2    29 RES29   0.0000
  3797 C2       0.0000  14.5804  26.9126   C.2      29 RES29   0.0000
  3798 C3       0.0000  14.2184  25.5779   C.2      29 RES29   0.0000
  3799 H3       0.0000  13.3006  25.3336   H        29 RES29   0.0000
  3800 C1       0.0000  13.5224  27.9706   C.2      29 RES29   0.0000
  3801 Zr1      0.0000   7.8889  31.1198   Zr       29 RES29   0.0000
  3802 O2A      0.0000   6.8416  29.1696   O.co2    29 RES29   0.0000
  3803 C2       0.0000   6.1661  26.9126   C.2      29 RES29   0.0000
  3804 C3       0.0000   6.5281  25.5779   C.2      29 RES29   0.0000
  3805 H3       0.0000   7.4459  25.3336   H        29 RES29   0.0000
  3806 C1       0.0000   7.2241  27.9706   C.2      29 RES29   0.0000
  3807 O2A      0.0000   6.8416  33.0699   O.co2    29 RES29   0.0000
  3808 C2       0.0000   6.1661  35.3269   C.2      29 RES29   0.0000
  3809 C3       0.0000   6.5281  36.6616   C.2      29 RES29   0.0000
  3810 H3       0.0000   7.4459  36.9059   H        29 RES29   0.0000
  3811 C1       0.0000   7.2241  34.2689   C.2      29 RES29   0.0000
  3812 Zr1      0.0000  10.3733  28.6354   Zr       29 RES29   0.0000
  3813 O2A      0.0000  12.3234  27.5881   O.co2    29 RES29   0.0000
  3814 C3       0.0000  15.9151  27.2746   C.2      29 RES29   0.0000
  3815 H3       0.0000  16.1594  28.1924   H        29 RES29   0.0000
  3816 O1A     -1.0477   9.3256  30.0721   O.3      29 RES29   0.0000
  3817 O2A      0.0000   8.4231  27.5881   O.co2    29 RES29   0.0000
  3818 C3       0.0000   4.8314  27.2746   C.2      29 RES29   0.0000
  3819 H3       0.0000   4.5871  28.1924   H        29 RES29   0.0000
  3820 O1A      1.0477  11.4209  30.0721   O.3      29 RES29   0.0000
  3821 O2A      0.0000   8.4231  34.6514   O.co2    29 RES29   0.0000
  3822 C3       0.0000   4.8314  34.9649   C.2      29 RES29   0.0000
  3823 H3       0.0000   4.5871  34.0471   H        29 RES29   0.0000
  3824 O1A     -1.0477  11.4209  32.1674   O.3      29 RES29   0.0000
  3825 O2A      0.0000  12.3234  34.6514   O.co2    29 RES29   0.0000
  3826 C3       0.0000  15.9151  34.9649   C.2      29 RES29   0.0000
  3827 H3       0.0000  16.1594  34.0471   H        29 RES29   0.0000
  3828 O1A      1.0477   9.3256  32.1674   O.3      29 RES29   0.0000
  3829 O2A      1.9502  13.9049  31.1198   O.co2    29 RES29   0.0000
  3830 C3       5.5418  14.2184  31.1198   C.2      29 RES29   0.0000
  3831 H3       5.7862  13.3006  31.1198   H        29 RES29   0.0000
  3832 O2A     -1.9502  13.9049  31.1198   O.co2    29 RES29   0.0000
  3833 C3      -5.5418  14.2184  31.1198   C.2      29 RES29   0.0000
  3834 H3      -5.7862  13.3006  31.1198   H        29 RES29   0.0000
  3835 O2A     -1.9502   6.8416  31.1198   O.co2    29 RES29   0.0000
  3836 C3      -5.5418   6.5281  31.1198   C.2      29 RES29   0.0000
  3837 H3      -5.7862   7.4459  31.1198   H        29 RES29   0.0000
  3838 O2A      1.9502   6.8416  31.1198   O.co2    29 RES29   0.0000
  3839 C3       5.5418   6.5281  31.1198   C.2      29 RES29   0.0000
  3840 H3       5.7862   7.4459  31.1198   H        29 RES29   0.0000
  3841 O2A      3.5317  10.3733  29.1696   O.co2    29 RES29   0.0000
  3842 C2       4.2072  10.3733  26.9126   C.2      29 RES29   0.0000
  3843 C3       3.8452  10.3733  25.5779   C.2      29 RES29   0.0000
  3844 H3       2.9273  10.3733  25.3336   H        29 RES29   0.0000
  3845 C1       3.1491  10.3733  27.9706   C.2      29 RES29   0.0000
  3846 O2A      3.5317  10.3733  33.0699   O.co2    29 RES29   0.0000
  3847 C3       3.8452  10.3733  36.6616   C.2      29 RES29   0.0000
  3848 H3       2.9273  10.3733  36.9059   H        29 RES29   0.0000
  3849 O2A     -3.5317  10.3733  33.0699   O.co2    29 RES29   0.0000
  3850 C3      -3.8452  10.3733  36.6616   C.2      29 RES29   0.0000
  3851 H3      -2.9273  10.3733  36.9059   H        29 RES29   0.0000
  3852 O2A     -3.5317  10.3733  29.1696   O.co2    29 RES29   0.0000
  3853 C2      -4.2072  10.3733  26.9126   C.2      29 RES29   0.0000
  3854 C3      -3.8452  10.3733  25.5779   C.2      29 RES29   0.0000
  3855 H3      -2.9273  10.3733  25.3336   H        29 RES29   0.0000
  3856 C1      -3.1491  10.3733  27.9706   C.2      29 RES29   0.0000
  3857 O2A     -1.9502  10.3733  27.5881   O.co2    29 RES29   0.0000
  3858 C3      -5.5418  10.3733  27.2746   C.2      29 RES29   0.0000
  3859 H3      -5.7862  10.3733  28.1924   H        29 RES29   0.0000
  3860 O2A      1.9502  10.3733  27.5881   O.co2    29 RES29   0.0000
  3861 C3       5.5418  10.3733  27.2746   C.2      29 RES29   0.0000
  3862 H3       5.7862  10.3733  28.1924   H        29 RES29   0.0000
  3863 C3       0.0000   3.8452  26.2883   C.2      29 RES29   0.0000
  3864 C3       0.0000   3.8452  35.9512   C.2      29 RES29   0.0000
  3865 C3       0.0000  16.9013  35.9512   C.2      29 RES29   0.0000
  3866 C3       0.0000  16.9013  26.2883   C.2      29 RES29   0.0000
  3867 C3       0.0000   5.5418  37.6478   C.2      29 RES29   0.0000
  3868 C3       0.0000  15.2047  37.6478   C.2      29 RES29   0.0000
  3869 C3       0.0000  15.2047  24.5917   C.2      29 RES29   0.0000
  3870 C3       0.0000   5.5418  24.5917   C.2      29 RES29   0.0000
  3871 C3      -4.8314  10.3733  24.5917   C.2      29 RES29   0.0000
  3872 C3       4.8314  10.3733  24.5917   C.2      29 RES29   0.0000
  3873 C3       4.8314  10.3733  37.6478   C.2      29 RES29   0.0000
  3874 C3      -4.8314  10.3733  37.6478   C.2      29 RES29   0.0000
  3875 C3      -6.5281  10.3733  35.9512   C.2      29 RES29   0.0000
  3876 C3      -6.5281  10.3733  26.2883   C.2      29 RES29   0.0000
  3877 C3       6.5281  10.3733  26.2883   C.2      29 RES29   0.0000
  3878 C3       6.5281  10.3733  35.9512   C.2      29 RES29   0.0000
  3879 C3      -6.5281   5.5418  31.1198   C.2      29 RES29   0.0000
  3880 C3      -6.5281  15.2047  31.1198   C.2      29 RES29   0.0000
  3881 C3       6.5281  15.2047  31.1198   C.2      29 RES29   0.0000
  3882 C3       6.5281   5.5418  31.1198   C.2      29 RES29   0.0000
  3883 C3      -4.8314   3.8452  31.1198   C.2      29 RES29   0.0000
  3884 C3       4.8314   3.8452  31.1198   C.2      29 RES29   0.0000
  3885 C3       4.8314  16.9013  31.1198   C.2      29 RES29   0.0000
  3886 C3      -4.8314  16.9013  31.1198   C.2      29 RES29   0.0000
  3887 Zr1      0.0000  31.1198  12.8576   Zr       30 RES30   0.0000
  3888 O2A      1.9502  31.1198  13.9049   O.co2    30 RES30   0.0000
  3889 C2       4.2072  31.1198  14.5804   C.2      30 RES30   0.0000
  3890 C3       5.5418  31.1198  14.2184   C.2      30 RES30   0.0000
  3891 H3       5.7862  31.1198  13.3006   H        30 RES30   0.0000
  3892 O1A     -1.0477  30.0721  11.4209   O.3      30 RES30   0.0000
  3893 C1       3.1491  31.1198  13.5224   C.2      30 RES30   0.0000
  3894 O2A     -1.9502  31.1198  13.9049   O.co2    30 RES30   0.0000
  3895 C2      -4.2072  31.1198  14.5804   C.2      30 RES30   0.0000
  3896 C3      -5.5418  31.1198  14.2184   C.2      30 RES30   0.0000
  3897 H3      -5.7862  31.1198  13.3006   H        30 RES30   0.0000
  3898 O1A      1.0477  32.1674  11.4209   O.3      30 RES30   0.0000
  3899 C1      -3.1491  31.1198  13.5224   C.2      30 RES30   0.0000
  3900 Zr1      2.4844  31.1198  10.3733   Zr       30 RES30   0.0000
  3901 O2A      3.5317  33.0699  10.3733   O.co2    30 RES30   0.0000
  3902 C2       4.2072  35.3269  10.3733   C.2      30 RES30   0.0000
  3903 C3       3.8452  36.6616  10.3733   C.2      30 RES30   0.0000
  3904 H3       2.9273  36.9059  10.3733   H        30 RES30   0.0000
  3905 O1A      1.0477  30.0721   9.3256   O.3      30 RES30   0.0000
  3906 C1       3.1491  34.2689  10.3733   C.2      30 RES30   0.0000
  3907 O2A      3.5317  29.1696  10.3733   O.co2    30 RES30   0.0000
  3908 C2       4.2072  26.9126  10.3733   C.2      30 RES30   0.0000
  3909 C3       3.8452  25.5779  10.3733   C.2      30 RES30   0.0000
  3910 H3       2.9273  25.3336  10.3733   H        30 RES30   0.0000
  3911 C1       3.1491  27.9706  10.3733   C.2      30 RES30   0.0000
  3912 Zr1     -2.4844  31.1198  10.3733   Zr       30 RES30   0.0000
  3913 O2A     -3.5317  29.1696  10.3733   O.co2    30 RES30   0.0000
  3914 C2      -4.2072  26.9126  10.3733   C.2      30 RES30   0.0000
  3915 C3      -3.8452  25.5779  10.3733   C.2      30 RES30   0.0000
  3916 H3      -2.9273  25.3336  10.3733   H        30 RES30   0.0000
  3917 O1A     -1.0477  32.1674   9.3256   O.3      30 RES30   0.0000
  3918 C1      -3.1491  27.9706  10.3733   C.2      30 RES30   0.0000
  3919 O2A     -3.5317  33.0699  10.3733   O.co2    30 RES30   0.0000
  3920 C2      -4.2072  35.3269  10.3733   C.2      30 RES30   0.0000
  3921 C3      -3.8452  36.6616  10.3733   C.2      30 RES30   0.0000
  3922 H3      -2.9273  36.9059  10.3733   H        30 RES30   0.0000
  3923 C1      -3.1491  34.2689  10.3733   C.2      30 RES30   0.0000
  3924 Zr1      0.0000  33.6041  10.3733   Zr       30 RES30   0.0000
  3925 O2A      0.0000  34.6514  12.3234   O.co2    30 RES30   0.0000
  3926 C2       0.0000  35.3269  14.5804   C.2      30 RES30   0.0000
  3927 C3       0.0000  34.9649  15.9151   C.2      30 RES30   0.0000
  3928 H3       0.0000  34.0471  16.1594   H        30 RES30   0.0000
  3929 C1       0.0000  34.2689  13.5224   C.2      30 RES30   0.0000
  3930 O2A      0.0000  34.6514   8.4231   O.co2    30 RES30   0.0000
  3931 C2       0.0000  35.3269   6.1661   C.2      30 RES30   0.0000
  3932 C3       0.0000  34.9649   4.8314   C.2      30 RES30   0.0000
  3933 H3       0.0000  34.0471   4.5871   H        30 RES30   0.0000
  3934 C1       0.0000  34.2689   7.2241   C.2      30 RES30   0.0000
  3935 Zr1      0.0000  28.6354  10.3733   Zr       30 RES30   0.0000
  3936 O2A      0.0000  27.5881   8.4231   O.co2    30 RES30   0.0000
  3937 C2       0.0000  26.9126   6.1661   C.2      30 RES30   0.0000
  3938 C3       0.0000  27.2746   4.8314   C.2      30 RES30   0.0000
  3939 H3       0.0000  28.1924   4.5871   H        30 RES30   0.0000
  3940 C1       0.0000  27.9706   7.2241   C.2      30 RES30   0.0000
  3941 O2A      0.0000  27.5881  12.3234   O.co2    30 RES30   0.0000
  3942 C2       0.0000  26.9126  14.5804   C.2      30 RES30   0.0000
  3943 C3       0.0000  27.2746  15.9151   C.2      30 RES30   0.0000
  3944 H3       0.0000  28.1924  16.1594   H        30 RES30   0.0000
  3945 C1       0.0000  27.9706  13.5224   C.2      30 RES30   0.0000
  3946 Zr1      0.0000  31.1198   7.8889   Zr       30 RES30   0.0000
  3947 O2A      0.0000  33.0699   6.8416   O.co2    30 RES30   0.0000
  3948 C3       0.0000  36.6616   6.5281   C.2      30 RES30   0.0000
  3949 H3       0.0000  36.9059   7.4459   H        30 RES30   0.0000
  3950 O1A     -1.0477  30.0721   9.3256   O.3      30 RES30   0.0000
  3951 O2A      0.0000  29.1696   6.8416   O.co2    30 RES30   0.0000
  3952 C3       0.0000  25.5779   6.5281   C.2      30 RES30   0.0000
  3953 H3       0.0000  25.3336   7.4459   H        30 RES30   0.0000
  3954 O1A      1.0477  32.1674   9.3256   O.3      30 RES30   0.0000
  3955 O2A      0.0000  29.1696  13.9049   O.co2    30 RES30   0.0000
  3956 C3       0.0000  25.5779  14.2184   C.2      30 RES30   0.0000
  3957 H3       0.0000  25.3336  13.3006   H        30 RES30   0.0000
  3958 O1A     -1.0477  32.1674  11.4209   O.3      30 RES30   0.0000
  3959 O2A      0.0000  33.0699  13.9049   O.co2    30 RES30   0.0000
  3960 C3       0.0000  36.6616  14.2184   C.2      30 RES30   0.0000
  3961 H3       0.0000  36.9059  13.3006   H        30 RES30   0.0000
  3962 O1A      1.0477  30.0721  11.4209   O.3      30 RES30   0.0000
  3963 O2A      1.9502  34.6514  10.3733   O.co2    30 RES30   0.0000
  3964 C3       5.5418  34.9649  10.3733   C.2      30 RES30   0.0000
  3965 H3       5.7862  34.0471  10.3733   H        30 RES30   0.0000
  3966 O2A     -1.9502  34.6514  10.3733   O.co2    30 RES30   0.0000
  3967 C3      -5.5418  34.9649  10.3733   C.2      30 RES30   0.0000
  3968 H3      -5.7862  34.0471  10.3733   H        30 RES30   0.0000
  3969 O2A     -1.9502  27.5881  10.3733   O.co2    30 RES30   0.0000
  3970 C3      -5.5418  27.2746  10.3733   C.2      30 RES30   0.0000
  3971 H3      -5.7862  28.1924  10.3733   H        30 RES30   0.0000
  3972 O2A      1.9502  27.5881  10.3733   O.co2    30 RES30   0.0000
  3973 C3       5.5418  27.2746  10.3733   C.2      30 RES30   0.0000
  3974 H3       5.7862  28.1924  10.3733   H        30 RES30   0.0000
  3975 O2A      3.5317  31.1198   8.4231   O.co2    30 RES30   0.0000
  3976 C2       4.2072  31.1198   6.1661   C.2      30 RES30   0.0000
  3977 C3       3.8452  31.1198   4.8314   C.2      30 RES30   0.0000
  3978 H3       2.9273  31.1198   4.5871   H        30 RES30   0.0000
  3979 C1       3.1491  31.1198   7.2241   C.2      30 RES30   0.0000
  3980 O2A      3.5317  31.1198  12.3234   O.co2    30 RES30   0.0000
  3981 C3       3.8452  31.1198  15.9151   C.2      30 RES30   0.0000
  3982 H3       2.9273  31.1198  16.1594   H        30 RES30   0.0000
  3983 O2A     -3.5317  31.1198  12.3234   O.co2    30 RES30   0.0000
  3984 C3      -3.8452  31.1198  15.9151   C.2      30 RES30   0.0000
  3985 H3      -2.9273  31.1198  16.1594   H        30 RES30   0.0000
  3986 O2A     -3.5317  31.1198   8.4231   O.co2    30 RES30   0.0000
  3987 C2      -4.2072  31.1198   6.1661   C.2      30 RES30   0.0000
  3988 C3      -3.8452  31.1198   4.8314   C.2      30 RES30   0.0000
  3989 H3      -2.9273  31.1198   4.5871   H        30 RES30   0.0000
  3990 C1      -3.1491  31.1198   7.2241   C.2      30 RES30   0.0000
  3991 O2A     -1.9502  31.1198   6.8416   O.co2    30 RES30   0.0000
  3992 C3      -5.5418  31.1198   6.5281   C.2      30 RES30   0.0000
  3993 H3      -5.7862  31.1198   7.4459   H        30 RES30   0.0000
  3994 O2A      1.9502  31.1198   6.8416   O.co2    30 RES30   0.0000
  3995 C3       5.5418  31.1198   6.5281   C.2      30 RES30   0.0000
  3996 H3       5.7862  31.1198   7.4459   H        30 RES30   0.0000
  3997 C3       0.0000  24.5917   5.5418   C.2      30 RES30   0.0000
  3998 C3       0.0000  24.5917  15.2047   C.2      30 RES30   0.0000
  3999 C3       0.0000  37.6478  15.2047   C.2      30 RES30   0.0000
  4000 C3       0.0000  37.6478   5.5418   C.2      30 RES30   0.0000
  4001 C3       0.0000  26.2883  16.9013   C.2      30 RES30   0.0000
  4002 C3       0.0000  35.9512  16.9013   C.2      30 RES30   0.0000
  4003 C3       0.0000  35.9512   3.8452   C.2      30 RES30   0.0000
  4004 C3       0.0000  26.2883   3.8452   C.2      30 RES30   0.0000
  4005 C3      -4.8314  31.1198   3.8452   C.2      30 RES30   0.0000
  4006 C3       4.8314  31.1198   3.8452   C.2      30 RES30   0.0000
  4007 C3       4.8314  31.1198  16.9013   C.2      30 RES30   0.0000
  4008 C3      -4.8314  31.1198  16.9013   C.2      30 RES30   0.0000
  4009 C3      -6.5281  31.1198  15.2047   C.2      30 RES30   0.0000
  4010 C3      -6.5281  31.1198   5.5418   C.2      30 RES30   0.0000
  4011 C3       6.5281  31.1198   5.5418   C.2      30 RES30   0.0000
  4012 C3       6.5281  31.1198  15.2047   C.2      30 RES30   0.0000
  4013 C3      -6.5281  26.2883  10.3733   C.2      30 RES30   0.0000
  4014 C3      -6.5281  35.9512  10.3733   C.2      30 RES30   0.0000
  4015 C3       6.5281  35.9512  10.3733   C.2      30 RES30   0.0000
  4016 C3       6.5281  26.2883  10.3733   C.2      30 RES30   0.0000
  4017 C3      -4.8314  24.5917  10.3733   C.2      30 RES30   0.0000
  4018 C3       4.8314  24.5917  10.3733   C.2      30 RES30   0.0000
  4019 C3       4.8314  37.6478  10.3733   C.2      30 RES30   0.0000
  4020 C3      -4.8314  37.6478  10.3733   C.2      30 RES30   0.0000
  4021 Zr1      0.0000  31.1198  33.6041   Zr       31 RES31   0.0000
  4022 O2A      1.9502  31.1198  34.6514   O.co2    31 RES31   0.0000
  4023 C2       4.2072  31.1198  35.3269   C.2      31 RES31   0.0000
  4024 C3       5.5418  31.1198  34.9649   C.2      31 RES31   0.0000
  4025 H3       5.7862  31.1198  34.0471   H        31 RES31   0.0000
  4026 O1A     -1.0477  30.0721  32.1674   O.3      31 RES31   0.0000
  4027 C1       3.1491  31.1198  34.2689   C.2      31 RES31   0.0000
  4028 O2A     -1.9502  31.1198  34.6514   O.co2    31 RES31   0.0000
  4029 C2      -4.2072  31.1198  35.3269   C.2      31 RES31   0.0000
  4030 C3      -5.5418  31.1198  34.9649   C.2      31 RES31   0.0000
  4031 H3      -5.7862  31.1198  34.0471   H        31 RES31   0.0000
  4032 O1A      1.0477  32.1674  32.1674   O.3      31 RES31   0.0000
  4033 C1      -3.1491  31.1198  34.2689   C.2      31 RES31   0.0000
  4034 Zr1      2.4844  31.1198  31.1198   Zr       31 RES31   0.0000
  4035 O2A      3.5317  33.0699  31.1198   O.co2    31 RES31   0.0000
  4036 C2       4.2072  35.3269  31.1198   C.2      31 RES31   0.0000
  4037 C3       3.8452  36.6616  31.1198   C.2      31 RES31   0.0000
  4038 H3       2.9273  36.9059  31.1198   H        31 RES31   0.0000
  4039 O1A      1.0477  30.0721  30.0721   O.3      31 RES31   0.0000
  4040 C1       3.1491  34.2689  31.1198   C.2      31 RES31   0.0000
  4041 O2A      3.5317  29.1696  31.1198   O.co2    31 RES31   0.0000
  4042 C2       4.2072  26.9126  31.1198   C.2      31 RES31   0.0000
  4043 C3       3.8452  25.5779  31.1198   C.2      31 RES31   0.0000
  4044 H3       2.9273  25.3336  31.1198   H        31 RES31   0.0000
  4045 C1       3.1491  27.9706  31.1198   C.2      31 RES31   0.0000
  4046 Zr1     -2.4844  31.1198  31.1198   Zr       31 RES31   0.0000
  4047 O2A     -3.5317  29.1696  31.1198   O.co2    31 RES31   0.0000
  4048 C2      -4.2072  26.9126  31.1198   C.2      31 RES31   0.0000
  4049 C3      -3.8452  25.5779  31.1198   C.2      31 RES31   0.0000
  4050 H3      -2.9273  25.3336  31.1198   H        31 RES31   0.0000
  4051 O1A     -1.0477  32.1674  30.0721   O.3      31 RES31   0.0000
  4052 C1      -3.1491  27.9706  31.1198   C.2      31 RES31   0.0000
  4053 O2A     -3.5317  33.0699  31.1198   O.co2    31 RES31   0.0000
  4054 C2      -4.2072  35.3269  31.1198   C.2      31 RES31   0.0000
  4055 C3      -3.8452  36.6616  31.1198   C.2      31 RES31   0.0000
  4056 H3      -2.9273  36.9059  31.1198   H        31 RES31   0.0000
  4057 C1      -3.1491  34.2689  31.1198   C.2      31 RES31   0.0000
  4058 Zr1      0.0000  33.6041  31.1198   Zr       31 RES31   0.0000
  4059 O2A      0.0000  34.6514  33.0699   O.co2    31 RES31   0.0000
  4060 C2       0.0000  35.3269  35.3269   C.2      31 RES31   0.0000
  4061 C3       0.0000  34.9649  36.6616   C.2      31 RES31   0.0000
  4062 H3       0.0000  34.0471  36.9059   H        31 RES31   0.0000
  4063 C1       0.0000  34.2689  34.2689   C.2      31 RES31   0.0000
  4064 O2A      0.0000  34.6514  29.1696   O.co2    31 RES31   0.0000
  4065 C2       0.0000  35.3269  26.9126   C.2      31 RES31   0.0000
  4066 C3       0.0000  34.9649  25.5779   C.2      31 RES31   0.0000
  4067 H3       0.0000  34.0471  25.3336   H        31 RES31   0.0000
  4068 C1       0.0000  34.2689  27.9706   C.2      31 RES31   0.0000
  4069 Zr1      0.0000  28.6354  31.1198   Zr       31 RES31   0.0000
  4070 O2A      0.0000  27.5881  29.1696   O.co2    31 RES31   0.0000
  4071 C2       0.0000  26.9126  26.9126   C.2      31 RES31   0.0000
  4072 C3       0.0000  27.2746  25.5779   C.2      31 RES31   0.0000
  4073 H3       0.0000  28.1924  25.3336   H        31 RES31   0.0000
  4074 C1       0.0000  27.9706  27.9706   C.2      31 RES31   0.0000
  4075 O2A      0.0000  27.5881  33.0699   O.co2    31 RES31   0.0000
  4076 C2       0.0000  26.9126  35.3269   C.2      31 RES31   0.0000
  4077 C3       0.0000  27.2746  36.6616   C.2      31 RES31   0.0000
  4078 H3       0.0000  28.1924  36.9059   H        31 RES31   0.0000
  4079 C1       0.0000  27.9706  34.2689   C.2      31 RES31   0.0000
  4080 Zr1      0.0000  31.1198  28.6354   Zr       31 RES31   0.0000
  4081 O2A      0.0000  33.0699  27.5881   O.co2    31 RES31   0.0000
  4082 C3       0.0000  36.6616  27.2746   C.2      31 RES31   0.0000
  4083 H3       0.0000  36.9059  28.1924   H        31 RES31   0.0000
  4084 O1A     -1.0477  30.0721  30.0721   O.3      31 RES31   0.0000
  4085 O2A      0.0000  29.1696  27.5881   O.co2    31 RES31   0.0000
  4086 C3       0.0000  25.5779  27.2746   C.2      31 RES31   0.0000
  4087 H3       0.0000  25.3336  28.1924   H        31 RES31   0.0000
  4088 O1A      1.0477  32.1674  30.0721   O.3      31 RES31   0.0000
  4089 O2A      0.0000  29.1696  34.6514   O.co2    31 RES31   0.0000
  4090 C3       0.0000  25.5779  34.9649   C.2      31 RES31   0.0000
  4091 H3       0.0000  25.3336  34.0471   H        31 RES31   0.0000
  4092 O1A     -1.0477  32.1674  32.1674   O.3      31 RES31   0.0000
  4093 O2A      0.0000  33.0699  34.6514   O.co2    31 RES31   0.0000
  4094 C3       0.0000  36.6616  34.9649   C.2      31 RES31   0.0000
  4095 H3       0.0000  36.9059  34.0471   H        31 RES31   0.0000
  4096 O1A      1.0477  30.0721  32.1674   O.3      31 RES31   0.0000
  4097 O2A      1.9502  34.6514  31.1198   O.co2    31 RES31   0.0000
  4098 C3       5.5418  34.9649  31.1198   C.2      31 RES31   0.0000
  4099 H3       5.7862  34.0471  31.1198   H        31 RES31   0.0000
  4100 O2A     -1.9502  34.6514  31.1198   O.co2    31 RES31   0.0000
  4101 C3      -5.5418  34.9649  31.1198   C.2      31 RES31   0.0000
  4102 H3      -5.7862  34.0471  31.1198   H        31 RES31   0.0000
  4103 O2A     -1.9502  27.5881  31.1198   O.co2    31 RES31   0.0000
  4104 C3      -5.5418  27.2746  31.1198   C.2      31 RES31   0.0000
  4105 H3      -5.7862  28.1924  31.1198   H        31 RES31   0.0000
  4106 O2A      1.9502  27.5881  31.1198   O.co2    31 RES31   0.0000
  4107 C3       5.5418  27.2746  31.1198   C.2      31 RES31   0.0000
  4108 H3       5.7862  28.1924  31.1198   H        31 RES31   0.0000
  4109 O2A      3.5317  31.1198  29.1696   O.co2    31 RES31   0.0000
  4110 C2       4.2072  31.1198  26.9126   C.2      31 RES31   0.0000
  4111 C3       3.8452  31.1198  25.5779   C.2      31 RES31   0.0000
  4112 H3       2.9273  31.1198  25.3336   H        31 RES31   0.0000
  4113 C1       3.1491  31.1198  27.9706   C.2      31 RES31   0.0000
  4114 O2A      3.5317  31.1198  33.0699   O.co2    31 RES31   0.0000
  4115 C3       3.8452  31.1198  36.6616   C.2      31 RES31   0.0000
  4116 H3       2.9273  31.1198  36.9059   H        31 RES31   0.0000
  4117 O2A     -3.5317  31.1198  33.0699   O.co2    31 RES31   0.0000
  4118 C3      -3.8452  31.1198  36.6616   C.2      31 RES31   0.0000
  4119 H3      -2.9273  31.1198  36.9059   H        31 RES31   0.0000
  4120 O2A     -3.5317  31.1198  29.1696   O.co2    31 RES31   0.0000
  4121 C2      -4.2072  31.1198  26.9126   C.2      31 RES31   0.0000
  4122 C3      -3.8452  31.1198  25.5779   C.2      31 RES31   0.0000
  4123 H3      -2.9273  31.1198  25.3336   H        31 RES31   0.0000
  4124 C1      -3.1491  31.1198  27.9706   C.2      31 RES31   0.0000
  4125 O2A     -1.9502  31.1198  27.5881   O.co2    31 RES31   0.0000
  4126 C3      -5.5418  31.1198  27.2746   C.2      31 RES31   0.0000
  4127 H3      -5.7862  31.1198  28.1924   H        31 RES31   0.0000
  4128 O2A      1.9502  31.1198  27.5881   O.co2    31 RES31   0.0000
  4129 C3       5.5418  31.1198  27.2746   C.2      31 RES31   0.0000
  4130 H3       5.7862  31.1198  28.1924   H        31 RES31   0.0000
  4131 C3       0.0000  24.5917  26.2883   C.2      31 RES31   0.0000
  4132 C3       0.0000  24.5917  35.9512   C.2      31 RES31   0.0000
  4133 C3       0.0000  37.6478  35.9512   C.2      31 RES31   0.0000
  4134 C3       0.0000  37.6478  26.2883   C.2      31 RES31   0.0000
  4135 C3       0.0000  26.2883  37.6478   C.2      31 RES31   0.0000
  4136 C3       0.0000  35.9512  37.6478   C.2      31 RES31   0.0000
  4137 C3       0.0000  35.9512  24.5917   C.2      31 RES31   0.0000
  4138 C3       0.0000  26.2883  24.5917   C.2      31 RES31   0.0000
  4139 C3      -4.8314  31.1198  24.5917   C.2      31 RES31   0.0000
  4140 C3       4.8314  31.1198  24.5917   C.2      31 RES31   0.0000
  4141 C3       4.8314  31.1198  37.6478   C.2      31 RES31   0.0000
  4142 C3      -4.8314  31.1198  37.6478   C.2      31 RES31   0.0000
  4143 C3      -6.5281  31.1198  35.9512   C.2      31 RES31   0.0000
  4144 C3      -6.5281  31.1198  26.2883   C.2      31 RES31   0.0000
  4145 C3       6.5281  31.1198  26.2883   C.2      31 RES31   0.0000
  4146 C3       6.5281  31.1198  35.9512   C.2      31 RES31   0.0000
  4147 C3      -6.5281  26.2883  31.1198   C.2      31 RES31   0.0000
  4148 C3      -6.5281  35.9512  31.1198   C.2      31 RES31   0.0000
  4149 C3       6.5281  35.9512  31.1198   C.2      31 RES31   0.0000
  4150 C3       6.5281  26.2883  31.1198   C.2      31 RES31   0.0000
  4151 C3      -4.8314  24.5917  31.1198   C.2      31 RES31   0.0000
  4152 C3       4.8314  24.5917  31.1198   C.2      31 RES31   0.0000
  4153 C3       4.8314  37.6478  31.1198   C.2      31 RES31   0.0000
  4154 C3      -4.8314  37.6478  31.1198   C.2      31 RES31   0.0000
  4155 Zr1     20.7465  10.3733  12.8576   Zr       32 RES32   0.0000
  4156 O2A     22.6967  10.3733  13.9049   O.co2    32 RES32   0.0000
  4157 C2      24.9537  10.3733  14.5804   C.2      32 RES32   0.0000
  4158 C3      26.2883  10.3733  14.2184   C.2      32 RES32   0.0000
  4159 H3      26.5327  10.3733  13.3006   H        32 RES32   0.0000
  4160 O1A     19.6988   9.3256  11.4209   O.3      32 RES32   0.0000
  4161 C1      23.8956  10.3733  13.5224   C.2      32 RES32   0.0000
  4162 O2A     18.7963  10.3733  13.9049   O.co2    32 RES32   0.0000
  4163 C2      16.5393  10.3733  14.5804   C.2      32 RES32   0.0000
  4164 C3      15.2047  10.3733  14.2184   C.2      32 RES32   0.0000
  4165 H3      14.9603  10.3733  13.3006   H        32 RES32   0.0000
  4166 O1A     21.7942  11.4209  11.4209   O.3      32 RES32   0.0000
  4167 C1      17.5974  10.3733  13.5224   C.2      32 RES32   0.0000
  4168 Zr1     23.2309  10.3733  10.3733   Zr       32 RES32   0.0000
  4169 O2A     24.2782  12.3234  10.3733   O.co2    32 RES32   0.0000
  4170 C2      24.9537  14.5804  10.3733   C.2      32 RES32   0.0000
  4171 C3      24.5917  15.9151  10.3733   C.2      32 RES32   0.0000
  4172 H3      23.6738  16.1594  10.3733   H        32 RES32   0.0000
  4173 O1A     21.7942   9.3256   9.3256   O.3      32 RES32   0.0000
  4174 C1      23.8956  13.5224  10.3733   C.2      32 RES32   0.0000
  4175 O2A     24.2782   8.4231  10.3733   O.co2    32 RES32   0.0000
  4176 C2      24.9537   6.1661  10.3733   C.2      32 RES32   0.0000
  4177 C3      24.5917   4.8314  10.3733   C.2      32 RES32   0.0000
  4178 H3      23.6738   4.5871  10.3733   H        32 RES32   0.0000
  4179 C1      23.8956   7.2241  10.3733   C.2      32 RES32   0.0000
  4180 Zr1     18.2621  10.3733  10.3733   Zr       32 RES32   0.0000
  4181 O2A     17.2148   8.4231  10.3733   O.co2    32 RES32   0.0000
  4182 C2      16.5393   6.1661  10.3733   C.2      32 RES32   0.0000
  4183 C3      16.9013   4.8314  10.3733   C.2      32 RES32   0.0000
  4184 H3      17.8192   4.5871  10.3733   H        32 RES32   0.0000
  4185 O1A     19.6988  11.4209   9.3256   O.3      32 RES32   0.0000
  4186 C1      17.5974   7.2241  10.3733   C.2      32 RES32   0.0000
  4187 O2A     17.2148  12.3234  10.3733   O.co2    32 RES32   0.0000
  4188 C2      16.5393  14.5804  10.3733   C.2      32 RES32   0.0000
  4189 C3      16.9013  15.9151  10.3733   C.2      32 RES32   0.0000
  4190 H3      17.8192  16.1594  10.3733   H        32 RES32   0.0000
  4191 C1      17.5974  13.5224  10.3733   C.2      32 RES32   0.0000
  4192 Zr1     20.7465  12.8576  10.3733   Zr       32 RES32   0.0000
  4193 O2A     20.7465  13.9049  12.3234   O.co2    32 RES32   0.0000
  4194 C2      20.7465  14.5804  14.5804   C.2      32 RES32   0.0000
  4195 C3      20.7465  14.2184  15.9151   C.2      32 RES32   0.0000
  4196 H3      20.7465  13.3006  16.1594   H        32 RES32   0.0000
  4197 C1      20.7465  13.5224  13.5224   C.2      32 RES32   0.0000
  4198 O2A     20.7465  13.9049   8.4231   O.co2    32 RES32   0.0000
  4199 C2      20.7465  14.5804   6.1661   C.2      32 RES32   0.0000
  4200 C3      20.7465  14.2184   4.8314   C.2      32 RES32   0.0000
  4201 H3      20.7465  13.3006   4.5871   H        32 RES32   0.0000
  4202 C1      20.7465  13.5224   7.2241   C.2      32 RES32   0.0000
  4203 Zr1     20.7465   7.8889  10.3733   Zr       32 RES32   0.0000
  4204 O2A     20.7465   6.8416   8.4231   O.co2    32 RES32   0.0000
  4205 C2      20.7465   6.1661   6.1661   C.2      32 RES32   0.0000
  4206 C3      20.7465   6.5281   4.8314   C.2      32 RES32   0.0000
  4207 H3      20.7465   7.4459   4.5871   H        32 RES32   0.0000
  4208 C1      20.7465   7.2241   7.2241   C.2      32 RES32   0.0000
  4209 O2A     20.7465   6.8416  12.3234   O.co2    32 RES32   0.0000
  4210 C2      20.7465   6.1661  14.5804   C.2      32 RES32   0.0000
  4211 C3      20.7465   6.5281  15.9151   C.2      32 RES32   0.0000
  4212 H3      20.7465   7.4459  16.1594   H        32 RES32   0.0000
  4213 C1      20.7465   7.2241  13.5224   C.2      32 RES32   0.0000
  4214 Zr1     20.7465  10.3733   7.8889   Zr       32 RES32   0.0000
  4215 O2A     20.7465  12.3234   6.8416   O.co2    32 RES32   0.0000
  4216 C3      20.7465  15.9151   6.5281   C.2      32 RES32   0.0000
  4217 H3      20.7465  16.1594   7.4459   H        32 RES32   0.0000
  4218 O1A     19.6988   9.3256   9.3256   O.3      32 RES32   0.0000
  4219 O2A     20.7465   8.4231   6.8416   O.co2    32 RES32   0.0000
  4220 C3      20.7465   4.8314   6.5281   C.2      32 RES32   0.0000
  4221 H3      20.7465   4.5871   7.4459   H        32 RES32   0.0000
  4222 O1A     21.7942  11.4209   9.3256   O.3      32 RES32   0.0000
  4223 O2A     20.7465   8.4231  13.9049   O.co2    32 RES32   0.0000
  4224 C3      20.7465   4.8314  14.2184   C.2      32 RES32   0.0000
  4225 H3      20.7465   4.5871  13.3006   H        32 RES32   0.0000
  4226 O1A     19.6988  11.4209  11.4209   O.3      32 RES32   0.0000
  4227 O2A     20.7465  12.3234  13.9049   O.co2    32 RES32   0.0000
  4228 C3      20.7465  15.9151  14.2184   C.2      32 RES32   0.0000
  4229 H3      20.7465  16.1594  13.3006   H        32 RES32   0.0000
  4230 O1A     21.7942   9.3256  11.4209   O.3      32 RES32   0.0000
  4231 O2A     22.6967  13.9049  10.3733   O.co2    32 RES32   0.0000
  4232 C3      26.2883  14.2184  10.3733   C.2      32 RES32   0.0000
  4233 H3      26.5327  13.3006  10.3733   H        32 RES32   0.0000
  4234 O2A     18.7963  13.9049  10.3733   O.co2    32 RES32   0.0000
  4235 C3      15.2047  14.2184  10.3733   C.2      32 RES32   0.0000
  4236 H3      14.9603  13.3006  10.3733   H        32 RES32   0.0000
  4237 O2A     18.7963   6.8416  10.3733   O.co2    32 RES32   0.0000
  4238 C3      15.2047   6.5281  10.3733   C.2      32 RES32   0.0000
  4239 H3      14.9603   7.4459  10.3733   H        32 RES32   0.0000
  4240 O2A     22.6967   6.8416  10.3733   O.co2    32 RES32   0.0000
  4241 C3      26.2883   6.5281  10.3733   C.2      32 RES32   0.0000
  4242 H3      26.5327   7.4459  10.3733   H        32 RES32   0.0000
  4243 O2A     24.2782  10.3733   8.4231   O.co2    32 RES32   0.0000
  4244 C2      24.9537  10.3733   6.1661   C.2      32 RES32   0.0000
  4245 C3      24.5917  10.3733   4.8314   C.2      32 RES32   0.0000
  4246 H3      23.6738  10.3733   4.5871   H        32 RES32   0.0000
  4247 C1      23.8956  10.3733   7.2241   C.2      32 RES32   0.0000
  4248 O2A     24.2782  10.3733  12.3234   O.co2    32 RES32   0.0000
  4249 C3      24.5917  10.3733  15.9151   C.2      32 RES32   0.0000
  4250 H3      23.6738  10.3733  16.1594   H        32 RES32   0.0000
  4251 O2A     17.2148  10.3733  12.3234   O.co2    32 RES32   0.0000
  4252 C3      16.9013  10.3733  15.9151   C.2      32 RES32   0.0000
  4253 H3      17.8192  10.3733  16.1594   H        32 RES32   0.0000
  4254 O2A     17.2148  10.3733   8.4231   O.co2    32 RES32   0.0000
  4255 C2      16.5393  10.3733   6.1661   C.2      32 RES32   0.0000
  4256 C3      16.9013  10.3733   4.8314   C.2      32 RES32   0.0000
  4257 H3      17.8192  10.3733   4.5871   H        32 RES32   0.0000
  4258 C1      17.5974  10.3733   7.2241   C.2      32 RES32   0.0000
  4259 O2A     18.7963  10.3733   6.8416   O.co2    32 RES32   0.0000
  4260 C3      15.2047  10.3733   6.5281   C.2      32 RES32   0.0000
  4261 H3      14.9603  10.3733   7.4459   H        32 RES32   0.0000
  4262 O2A     22.6967  10.3733   6.8416   O.co2    32 RES32   0.0000
  4263 C3      26.2883  10.3733   6.5281   C.2      32 RES32   0.0000
  4264 H3      26.5327  10.3733   7.4459   H        32 RES32   0.0000
  4265 C3      20.7465   3.8452   5.5418   C.2      32 RES32   0.0000
  4266 C3      20.7465   3.8452  15.2047   C.2      32 RES32   0.0000
  4267 C3      20.7465  16.9013  15.2047   C.2      32 RES32   0.0000
  4268 C3      20.7465  16.9013   5.5418   C.2      32 RES32   0.0000
  4269 C3      20.7465   5.5418  16.9013   C.2      32 RES32   0.0000
  4270 C3      20.7465  15.2047  16.9013   C.2      32 RES32   0.0000
  4271 C3      20.7465  15.2047   3.8452   C.2      32 RES32   0.0000
  4272 C3      20.7465   5.5418   3.8452   C.2      32 RES32   0.0000
  4273 C3      15.9151  10.3733   3.8452   C.2      32 RES32   0.0000
  4274 C3      25.5779  10.3733   3.8452   C.2      32 RES32   0.0000
  4275 C3      25.5779  10.3733  16.9013   C.2      32 RES32   0.0000
  4276 C3      15.9151  10.3733  16.9013   C.2      32 RES32   0.0000
  4277 C3      14.2184  10.3733  15.2047   C.2      32 RES32   0.0000
  4278 C3      14.2184  10.3733   5.5418   C.2      32 RES32   0.0000
  4279 C3      27.2746  10.3733   5.5418   C.2      32 RES32   0.0000
  4280 C3      27.2746  10.3733  15.2047   C.2      32 RES32   0.0000
  4281 C3      14.2184   5.5418  10.3733   C.2      32 RES32   0.0000
  4282 C3      14.2184  15.2047  10.3733   C.2      32 RES32   0.0000
  4283 C3      27.2746  15.2047  10.3733   C.2      32 RES32   0.0000
  4284 C3      27.2746   5.5418  10.3733   C.2      32 RES32   0.0000
  4285 C3      15.9151   3.8452  10.3733   C.2      32 RES32   0.0000
  4286 C3      25.5779   3.8452  10.3733   C.2      32 RES32   0.0000
  4287 C3      25.5779  16.9013  10.3733   C.2      32 RES32   0.0000
  4288 C3      15.9151  16.9013  10.3733   C.2      32 RES32   0.0000
  4289 Zr1     20.7465  10.3733  33.6041   Zr       33 RES33   0.0000
  4290 O2A     22.6967  10.3733  34.6514   O.co2    33 RES33   0.0000
  4291 C2      24.9537  10.3733  35.3269   C.2      33 RES33   0.0000
  4292 C3      26.2883  10.3733  34.9649   C.2      33 RES33   0.0000
  4293 H3      26.5327  10.3733  34.0471   H        33 RES33   0.0000
  4294 O1A     19.6988   9.3256  32.1674   O.3      33 RES33   0.0000
  4295 C1      23.8956  10.3733  34.2689   C.2      33 RES33   0.0000
  4296 O2A     18.7963  10.3733  34.6514   O.co2    33 RES33   0.0000
  4297 C2      16.5393  10.3733  35.3269   C.2      33 RES33   0.0000
  4298 C3      15.2047  10.3733  34.9649   C.2      33 RES33   0.0000
  4299 H3      14.9603  10.3733  34.0471   H        33 RES33   0.0000
  4300 O1A     21.7942  11.4209  32.1674   O.3      33 RES33   0.0000
  4301 C1      17.5974  10.3733  34.2689   C.2      33 RES33   0.0000
  4302 Zr1     23.2309  10.3733  31.1198   Zr       33 RES33   0.0000
  4303 O2A     24.2782  12.3234  31.1198   O.co2    33 RES33   0.0000
  4304 C2      24.9537  14.5804  31.1198   C.2      33 RES33   0.0000
  4305 C3      24.5917  15.9151  31.1198   C.2      33 RES33   0.0000
  4306 H3      23.6738  16.1594  31.1198   H        33 RES33   0.0000
  4307 O1A     21.7942   9.3256  30.0721   O.3      33 RES33   0.0000
  4308 C1      23.8956  13.5224  31.1198   C.2      33 RES33   0.0000
  4309 O2A     24.2782   8.4231  31.1198   O.co2    33 RES33   0.0000
  4310 C2      24.9537   6.1661  31.1198   C.2      33 RES33   0.0000
  4311 C3      24.5917   4.8314  31.1198   C.2      33 RES33   0.0000
  4312 H3      23.6738   4.5871  31.1198   H        33 RES33   0.0000
  4313 C1      23.8956   7.2241  31.1198   C.2      33 RES33   0.0000
  4314 Zr1     18.2621  10.3733  31.1198   Zr       33 RES33   0.0000
  4315 O2A     17.2148   8.4231  31.1198   O.co2    33 RES33   0.0000
  4316 C2      16.5393   6.1661  31.1198   C.2      33 RES33   0.0000
  4317 C3      16.9013   4.8314  31.1198   C.2      33 RES33   0.0000
  4318 H3      17.8192   4.5871  31.1198   H        33 RES33   0.0000
  4319 O1A     19.6988  11.4209  30.0721   O.3      33 RES33   0.0000
  4320 C1      17.5974   7.2241  31.1198   C.2      33 RES33   0.0000
  4321 O2A     17.2148  12.3234  31.1198   O.co2    33 RES33   0.0000
  4322 C2      16.5393  14.5804  31.1198   C.2      33 RES33   0.0000
  4323 C3      16.9013  15.9151  31.1198   C.2      33 RES33   0.0000
  4324 H3      17.8192  16.1594  31.1198   H        33 RES33   0.0000
  4325 C1      17.5974  13.5224  31.1198   C.2      33 RES33   0.0000
  4326 Zr1     20.7465  12.8576  31.1198   Zr       33 RES33   0.0000
  4327 O2A     20.7465  13.9049  33.0699   O.co2    33 RES33   0.0000
  4328 C2      20.7465  14.5804  35.3269   C.2      33 RES33   0.0000
  4329 C3      20.7465  14.2184  36.6616   C.2      33 RES33   0.0000
  4330 H3      20.7465  13.3006  36.9059   H        33 RES33   0.0000
  4331 C1      20.7465  13.5224  34.2689   C.2      33 RES33   0.0000
  4332 O2A     20.7465  13.9049  29.1696   O.co2    33 RES33   0.0000
  4333 C2      20.7465  14.5804  26.9126   C.2      33 RES33   0.0000
  4334 C3      20.7465  14.2184  25.5779   C.2      33 RES33   0.0000
  4335 H3      20.7465  13.3006  25.3336   H        33 RES33   0.0000
  4336 C1      20.7465  13.5224  27.9706   C.2      33 RES33   0.0000
  4337 Zr1     20.7465   7.8889  31.1198   Zr       33 RES33   0.0000
  4338 O2A     20.7465   6.8416  29.1696   O.co2    33 RES33   0.0000
  4339 C2      20.7465   6.1661  26.9126   C.2      33 RES33   0.0000
  4340 C3      20.7465   6.5281  25.5779   C.2      33 RES33   0.0000
  4341 H3      20.7465   7.4459  25.3336   H        33 RES33   0.0000
  4342 C1      20.7465   7.2241  27.9706   C.2      33 RES33   0.0000
  4343 O2A     20.7465   6.8416  33.0699   O.co2    33 RES33   0.0000
  4344 C2      20.7465   6.1661  35.3269   C.2      33 RES33   0.0000
  4345 C3      20.7465   6.5281  36.6616   C.2      33 RES33   0.0000
  4346 H3      20.7465   7.4459  36.9059   H        33 RES33   0.0000
  4347 C1      20.7465   7.2241  34.2689   C.2      33 RES33   0.0000
  4348 Zr1     20.7465  10.3733  28.6354   Zr       33 RES33   0.0000
  4349 O2A     20.7465  12.3234  27.5881   O.co2    33 RES33   0.0000
  4350 C3      20.7465  15.9151  27.2746   C.2      33 RES33   0.0000
  4351 H3      20.7465  16.1594  28.1924   H        33 RES33   0.0000
  4352 O1A     19.6988   9.3256  30.0721   O.3      33 RES33   0.0000
  4353 O2A     20.7465   8.4231  27.5881   O.co2    33 RES33   0.0000
  4354 C3      20.7465   4.8314  27.2746   C.2      33 RES33   0.0000
  4355 H3      20.7465   4.5871  28.1924   H        33 RES33   0.0000
  4356 O1A     21.7942  11.4209  30.0721   O.3      33 RES33   0.0000
  4357 O2A     20.7465   8.4231  34.6514   O.co2    33 RES33   0.0000
  4358 C3      20.7465   4.8314  34.9649   C.2      33 RES33   0.0000
  4359 H3      20.7465   4.5871  34.0471   H        33 RES33   0.0000
  4360 O1A     19.6988  11.4209  32.1674   O.3      33 RES33   0.0000
  4361 O2A     20.7465  12.3234  34.6514   O.co2    33 RES33   0.0000
  4362 C3      20.7465  15.9151  34.9649   C.2      33 RES33   0.0000
  4363 H3      20.7465  16.1594  34.0471   H        33 RES33   0.0000
  4364 O1A     21.7942   9.3256  32.1674   O.3      33 RES33   0.0000
  4365 O2A     22.6967  13.9049  31.1198   O.co2    33 RES33   0.0000
  4366 C3      26.2883  14.2184  31.1198   C.2      33 RES33   0.0000
  4367 H3      26.5327  13.3006  31.1198   H        33 RES33   0.0000
  4368 O2A     18.7963  13.9049  31.1198   O.co2    33 RES33   0.0000
  4369 C3      15.2047  14.2184  31.1198   C.2      33 RES33   0.0000
  4370 H3      14.9603  13.3006  31.1198   H        33 RES33   0.0000
  4371 O2A     18.7963   6.8416  31.1198   O.co2    33 RES33   0.0000
  4372 C3      15.2047   6.5281  31.1198   C.2      33 RES33   0.0000
  4373 H3      14.9603   7.4459  31.1198   H        33 RES33   0.0000
  4374 O2A     22.6967   6.8416  31.1198   O.co2    33 RES33   0.0000
  4375 C3      26.2883   6.5281  31.1198   C.2      33 RES33   0.0000
  4376 H3      26.5327   7.4459  31.1198   H        33 RES33   0.0000
  4377 O2A     24.2782  10.3733  29.1696   O.co2    33 RES33   0.0000
  4378 C2      24.9537  10.3733  26.9126   C.2      33 RES33   0.0000
  4379 C3      24.5917  10.3733  25.5779   C.2      33 RES33   0.0000
  4380 H3      23.6738  10.3733  25.3336   H        33 RES33   0.0000
  4381 C1      23.8956  10.3733  27.9706   C.2      33 RES33   0.0000
  4382 O2A     24.2782  10.3733  33.0699   O.co2    33 RES33   0.0000
  4383 C3      24.5917  10.3733  36.6616   C.2      33 RES33   0.0000
  4384 H3      23.6738  10.3733  36.9059   H        33 RES33   0.0000
  4385 O2A     17.2148  10.3733  33.0699   O.co2    33 RES33   0.0000
  4386 C3      16.9013  10.3733  36.6616   C.2      33 RES33   0.0000
  4387 H3      17.8192  10.3733  36.9059   H        33 RES33   0.0000
  4388 O2A     17.2148  10.3733  29.1696   O.co2    33 RES33   0.0000
  4389 C2      16.5393  10.3733  26.9126   C.2      33 RES33   0.0000
  4390 C3      16.9013  10.3733  25.5779   C.2      33 RES33   0.0000
  4391 H3      17.8192  10.3733  25.3336   H        33 RES33   0.0000
  4392 C1      17.5974  10.3733  27.9706   C.2      33 RES33   0.0000
  4393 O2A     18.7963  10.3733  27.5881   O.co2    33 RES33   0.0000
  4394 C3      15.2047  10.3733  27.2746   C.2      33 RES33   0.0000
  4395 H3      14.9603  10.3733  28.1924   H        33 RES33   0.0000
  4396 O2A     22.6967  10.3733  27.5881   O.co2    33 RES33   0.0000
  4397 C3      26.2883  10.3733  27.2746   C.2      33 RES33   0.0000
  4398 H3      26.5327  10.3733  28.1924   H        33 RES33   0.0000
  4399 C3      20.7465   3.8452  26.2883   C.2      33 RES33   0.0000
  4400 C3      20.7465   3.8452  35.9512   C.2      33 RES33   0.0000
  4401 C3      20.7465  16.9013  35.9512   C.2      33 RES33   0.0000
  4402 C3      20.7465  16.9013  26.2883   C.2      33 RES33   0.0000
  4403 C3      20.7465   5.5418  37.6478   C.2      33 RES33   0.0000
  4404 C3      20.7465  15.2047  37.6478   C.2      33 RES33   0.0000
  4405 C3      20.7465  15.2047  24.5917   C.2      33 RES33   0.0000
  4406 C3      20.7465   5.5418  24.5917   C.2      33 RES33   0.0000
  4407 C3      15.9151  10.3733  24.5917   C.2      33 RES33   0.0000
  4408 C3      25.5779  10.3733  24.5917   C.2      33 RES33   0.0000
  4409 C3      25.5779  10.3733  37.6478   C.2      33 RES33   0.0000
  4410 C3      15.9151  10.3733  37.6478   C.2      33 RES33   0.0000
  4411 C3      14.2184  10.3733  35.9512   C.2      33 RES33   0.0000
  4412 C3      14.2184  10.3733  26.2883   C.2      33 RES33   0.0000
  4413 C3      27.2746  10.3733  26.2883   C.2      33 RES33   0.0000
  4414 C3      27.2746  10.3733  35.9512   C.2      33 RES33   0.0000
  4415 C3      14.2184   5.5418  31.1198   C.2      33 RES33   0.0000
  4416 C3      14.2184  15.2047  31.1198   C.2      33 RES33   0.0000
  4417 C3      27.2746  15.2047  31.1198   C.2      33 RES33   0.0000
  4418 C3      27.2746   5.5418  31.1198   C.2      33 RES33   0.0000
  4419 C3      15.9151   3.8452  31.1198   C.2      33 RES33   0.0000
  4420 C3      25.5779   3.8452  31.1198   C.2      33 RES33   0.0000
  4421 C3      25.5779  16.9013  31.1198   C.2      33 RES33   0.0000
  4422 C3      15.9151  16.9013  31.1198   C.2      33 RES33   0.0000
  4423 Zr1     20.7465  31.1198  12.8576   Zr       34 RES34   0.0000
  4424 O2A     22.6967  31.1198  13.9049   O.co2    34 RES34   0.0000
  4425 C2      24.9537  31.1198  14.5804   C.2      34 RES34   0.0000
  4426 C3      26.2883  31.1198  14.2184   C.2      34 RES34   0.0000
  4427 H3      26.5327  31.1198  13.3006   H        34 RES34   0.0000
  4428 O1A     19.6988  30.0721  11.4209   O.3      34 RES34   0.0000
  4429 C1      23.8956  31.1198  13.5224   C.2      34 RES34   0.0000
  4430 O2A     18.7963  31.1198  13.9049   O.co2    34 RES34   0.0000
  4431 C2      16.5393  31.1198  14.5804   C.2      34 RES34   0.0000
  4432 C3      15.2047  31.1198  14.2184   C.2      34 RES34   0.0000
  4433 H3      14.9603  31.1198  13.3006   H        34 RES34   0.0000
  4434 O1A     21.7942  32.1674  11.4209   O.3      34 RES34   0.0000
  4435 C1      17.5974  31.1198  13.5224   C.2      34 RES34   0.0000
  4436 Zr1     23.2309  31.1198  10.3733   Zr       34 RES34   0.0000
  4437 O2A     24.2782  33.0699  10.3733   O.co2    34 RES34   0.0000
  4438 C2      24.9537  35.3269  10.3733   C.2      34 RES34   0.0000
  4439 C3      24.5917  36.6616  10.3733   C.2      34 RES34   0.0000
  4440 H3      23.6738  36.9059  10.3733   H        34 RES34   0.0000
  4441 O1A     21.7942  30.0721   9.3256   O.3      34 RES34   0.0000
  4442 C1      23.8956  34.2689  10.3733   C.2      34 RES34   0.0000
  4443 O2A     24.2782  29.1696  10.3733   O.co2    34 RES34   0.0000
  4444 C2      24.9537  26.9126  10.3733   C.2      34 RES34   0.0000
  4445 C3      24.5917  25.5779  10.3733   C.2      34 RES34   0.0000
  4446 H3      23.6738  25.3336  10.3733   H        34 RES34   0.0000
  4447 C1      23.8956  27.9706  10.3733   C.2      34 RES34   0.0000
  4448 Zr1     18.2621  31.1198  10.3733   Zr       34 RES34   0.0000
  4449 O2A     17.2148  29.1696  10.3733   O.co2    34 RES34   0.0000
  4450 C2      16.5393  26.9126  10.3733   C.2      34 RES34   0.0000
  4451 C3      16.9013  25.5779  10.3733   C.2      34 RES34   0.0000
  4452 H3      17.8192  25.3336  10.3733   H        34 RES34   0.0000
  4453 O1A     19.6988  32.1674   9.3256   O.3      34 RES34   0.0000
  4454 C1      17.5974  27.9706  10.3733   C.2      34 RES34   0.0000
  4455 O2A     17.2148  33.0699  10.3733   O.co2    34 RES34   0.0000
  4456 C2      16.5393  35.3269  10.3733   C.2      34 RES34   0.0000
  4457 C3      16.9013  36.6616  10.3733   C.2      34 RES34   0.0000
  4458 H3      17.8192  36.9059  10.3733   H        34 RES34   0.0000
  4459 C1      17.5974  34.2689  10.3733   C.2      34 RES34   0.0000
  4460 Zr1     20.7465  33.6041  10.3733   Zr       34 RES34   0.0000
  4461 O2A     20.7465  34.6514  12.3234   O.co2    34 RES34   0.0000
  4462 C2      20.7465  35.3269  14.5804   C.2      34 RES34   0.0000
  4463 C3      20.7465  34.9649  15.9151   C.2      34 RES34   0.0000
  4464 H3      20.7465  34.0471  16.1594   H        34 RES34   0.0000
  4465 C1      20.7465  34.2689  13.5224   C.2      34 RES34   0.0000
  4466 O2A     20.7465  34.6514   8.4231   O.co2    34 RES34   0.0000
  4467 C2      20.7465  35.3269   6.1661   C.2      34 RES34   0.0000
  4468 C3      20.7465  34.9649   4.8314   C.2      34 RES34   0.0000
  4469 H3      20.7465  34.0471   4.5871   H        34 RES34   0.0000
  4470 C1      20.7465  34.2689   7.2241   C.2      34 RES34   0.0000
  4471 Zr1     20.7465  28.6354  10.3733   Zr       34 RES34   0.0000
  4472 O2A     20.7465  27.5881   8.4231   O.co2    34 RES34   0.0000
  4473 C2      20.7465  26.9126   6.1661   C.2      34 RES34   0.0000
  4474 C3      20.7465  27.2746   4.8314   C.2      34 RES34   0.0000
  4475 H3      20.7465  28.1924   4.5871   H        34 RES34   0.0000
  4476 C1      20.7465  27.9706   7.2241   C.2      34 RES34   0.0000
  4477 O2A     20.7465  27.5881  12.3234   O.co2    34 RES34   0.0000
  4478 C2      20.7465  26.9126  14.5804   C.2      34 RES34   0.0000
  4479 C3      20.7465  27.2746  15.9151   C.2      34 RES34   0.0000
  4480 H3      20.7465  28.1924  16.1594   H        34 RES34   0.0000
  4481 C1      20.7465  27.9706  13.5224   C.2      34 RES34   0.0000
  4482 Zr1     20.7465  31.1198   7.8889   Zr       34 RES34   0.0000
  4483 O2A     20.7465  33.0699   6.8416   O.co2    34 RES34   0.0000
  4484 C3      20.7465  36.6616   6.5281   C.2      34 RES34   0.0000
  4485 H3      20.7465  36.9059   7.4459   H        34 RES34   0.0000
  4486 O1A     19.6988  30.0721   9.3256   O.3      34 RES34   0.0000
  4487 O2A     20.7465  29.1696   6.8416   O.co2    34 RES34   0.0000
  4488 C3      20.7465  25.5779   6.5281   C.2      34 RES34   0.0000
  4489 H3      20.7465  25.3336   7.4459   H        34 RES34   0.0000
  4490 O1A     21.7942  32.1674   9.3256   O.3      34 RES34   0.0000
  4491 O2A     20.7465  29.1696  13.9049   O.co2    34 RES34   0.0000
  4492 C3      20.7465  25.5779  14.2184   C.2      34 RES34   0.0000
  4493 H3      20.7465  25.3336  13.3006   H        34 RES34   0.0000
  4494 O1A     19.6988  32.1674  11.4209   O.3      34 RES34   0.0000
  4495 O2A     20.7465  33.0699  13.9049   O.co2    34 RES34   0.0000
  4496 C3      20.7465  36.6616  14.2184   C.2      34 RES34   0.0000
  4497 H3      20.7465  36.9059  13.3006   H        34 RES34   0.0000
  4498 O1A     21.7942  30.0721  11.4209   O.3      34 RES34   0.0000
  4499 O2A     22.6967  34.6514  10.3733   O.co2    34 RES34   0.0000
  4500 C3      26.2883  34.9649  10.3733   C.2      34 RES34   0.0000
  4501 H3      26.5327  34.0471  10.3733   H        34 RES34   0.0000
  4502 O2A     18.7963  34.6514  10.3733   O.co2    34 RES34   0.0000
  4503 C3      15.2047  34.9649  10.3733   C.2      34 RES34   0.0000
  4504 H3      14.9603  34.0471  10.3733   H        34 RES34   0.0000
  4505 O2A     18.7963  27.5881  10.3733   O.co2    34 RES34   0.0000
  4506 C3      15.2047  27.2746  10.3733   C.2      34 RES34   0.0000
  4507 H3      14.9603  28.1924  10.3733   H        34 RES34   0.0000
  4508 O2A     22.6967  27.5881  10.3733   O.co2    34 RES34   0.0000
  4509 C3      26.2883  27.2746  10.3733   C.2      34 RES34   0.0000
  4510 H3      26.5327  28.1924  10.3733   H        34 RES34   0.0000
  4511 O2A     24.2782  31.1198   8.4231   O.co2    34 RES34   0.0000
  4512 C2      24.9537  31.1198   6.1661   C.2      34 RES34   0.0000
  4513 C3      24.5917  31.1198   4.8314   C.2      34 RES34   0.0000
  4514 H3      23.6738  31.1198   4.5871   H        34 RES34   0.0000
  4515 C1      23.8956  31.1198   7.2241   C.2      34 RES34   0.0000
  4516 O2A     24.2782  31.1198  12.3234   O.co2    34 RES34   0.0000
  4517 C3      24.5917  31.1198  15.9151   C.2      34 RES34   0.0000
  4518 H3      23.6738  31.1198  16.1594   H        34 RES34   0.0000
  4519 O2A     17.2148  31.1198  12.3234   O.co2    34 RES34   0.0000
  4520 C3      16.9013  31.1198  15.9151   C.2      34 RES34   0.0000
  4521 H3      17.8192  31.1198  16.1594   H        34 RES34   0.0000
  4522 O2A     17.2148  31.1198   8.4231   O.co2    34 RES34   0.0000
  4523 C2      16.5393  31.1198   6.1661   C.2      34 RES34   0.0000
  4524 C3      16.9013  31.1198   4.8314   C.2      34 RES34   0.0000
  4525 H3      17.8192  31.1198   4.5871   H        34 RES34   0.0000
  4526 C1      17.5974  31.1198   7.2241   C.2      34 RES34   0.0000
  4527 O2A     18.7963  31.1198   6.8416   O.co2    34 RES34   0.0000
  4528 C3      15.2047  31.1198   6.5281   C.2      34 RES34   0.0000
  4529 H3      14.9603  31.1198   7.4459   H        34 RES34   0.0000
  4530 O2A     22.6967  31.1198   6.8416   O.co2    34 RES34   0.0000
  4531 C3      26.2883  31.1198   6.5281   C.2      34 RES34   0.0000
  4532 H3      26.5327  31.1198   7.4459   H        34 RES34   0.0000
  4533 C3      20.7465  24.5917   5.5418   C.2      34 RES34   0.0000
  4534 C3      20.7465  24.5917  15.2047   C.2      34 RES34   0.0000
  4535 C3      20.7465  37.6478  15.2047   C.2      34 RES34   0.0000
  4536 C3      20.7465  37.6478   5.5418   C.2      34 RES34   0.0000
  4537 C3      20.7465  26.2883  16.9013   C.2      34 RES34   0.0000
  4538 C3      20.7465  35.9512  16.9013   C.2      34 RES34   0.0000
  4539 C3      20.7465  35.9512   3.8452   C.2      34 RES34   0.0000
  4540 C3      20.7465  26.2883   3.8452   C.2      34 RES34   0.0000
  4541 C3      15.9151  31.1198   3.8452   C.2      34 RES34   0.0000
  4542 C3      25.5779  31.1198   3.8452   C.2      34 RES34   0.0000
  4543 C3      25.5779  31.1198  16.9013   C.2      34 RES34   0.0000
  4544 C3      15.9151  31.1198  16.9013   C.2      34 RES34   0.0000
  4545 C3      14.2184  31.1198  15.2047   C.2      34 RES34   0.0000
  4546 C3      14.2184  31.1198   5.5418   C.2      34 RES34   0.0000
  4547 C3      27.2746  31.1198   5.5418   C.2      34 RES34   0.0000
  4548 C3      27.2746  31.1198  15.2047   C.2      34 RES34   0.0000
  4549 C3      14.2184  26.2883  10.3733   C.2      34 RES34   0.0000
  4550 C3      14.2184  35.9512  10.3733   C.2      34 RES34   0.0000
  4551 C3      27.2746  35.9512  10.3733   C.2      34 RES34   0.0000
  4552 C3      27.2746  26.2883  10.3733   C.2      34 RES34   0.0000
  4553 C3      15.9151  24.5917  10.3733   C.2      34 RES34   0.0000
  4554 C3      25.5779  24.5917  10.3733   C.2      34 RES34   0.0000
  4555 C3      25.5779  37.6478  10.3733   C.2      34 RES34   0.0000
  4556 C3      15.9151  37.6478  10.3733   C.2      34 RES34   0.0000
  4557 Zr1     20.7465  31.1198  33.6041   Zr       35 RES35   0.0000
  4558 O2A     22.6967  31.1198  34.6514   O.co2    35 RES35   0.0000
  4559 C2      24.9537  31.1198  35.3269   C.2      35 RES35   0.0000
  4560 C3      26.2883  31.1198  34.9649   C.2      35 RES35   0.0000
  4561 H3      26.5327  31.1198  34.0471   H        35 RES35   0.0000
  4562 O1A     19.6988  30.0721  32.1674   O.3      35 RES35   0.0000
  4563 C1      23.8956  31.1198  34.2689   C.2      35 RES35   0.0000
  4564 O2A     18.7963  31.1198  34.6514   O.co2    35 RES35   0.0000
  4565 C2      16.5393  31.1198  35.3269   C.2      35 RES35   0.0000
  4566 C3      15.2047  31.1198  34.9649   C.2      35 RES35   0.0000
  4567 H3      14.9603  31.1198  34.0471   H        35 RES35   0.0000
  4568 O1A     21.7942  32.1674  32.1674   O.3      35 RES35   0.0000
  4569 C1      17.5974  31.1198  34.2689   C.2      35 RES35   0.0000
  4570 Zr1     23.2309  31.1198  31.1198   Zr       35 RES35   0.0000
  4571 O2A     24.2782  33.0699  31.1198   O.co2    35 RES35   0.0000
  4572 C2      24.9537  35.3269  31.1198   C.2      35 RES35   0.0000
  4573 C3      24.5917  36.6616  31.1198   C.2      35 RES35   0.0000
  4574 H3      23.6738  36.9059  31.1198   H        35 RES35   0.0000
  4575 O1A     21.7942  30.0721  30.0721   O.3      35 RES35   0.0000
  4576 C1      23.8956  34.2689  31.1198   C.2      35 RES35   0.0000
  4577 O2A     24.2782  29.1696  31.1198   O.co2    35 RES35   0.0000
  4578 C2      24.9537  26.9126  31.1198   C.2      35 RES35   0.0000
  4579 C3      24.5917  25.5779  31.1198   C.2      35 RES35   0.0000
  4580 H3      23.6738  25.3336  31.1198   H        35 RES35   0.0000
  4581 C1      23.8956  27.9706  31.1198   C.2      35 RES35   0.0000
  4582 Zr1     18.2621  31.1198  31.1198   Zr       35 RES35   0.0000
  4583 O2A     17.2148  29.1696  31.1198   O.co2    35 RES35   0.0000
  4584 C2      16.5393  26.9126  31.1198   C.2      35 RES35   0.0000
  4585 C3      16.9013  25.5779  31.1198   C.2      35 RES35   0.0000
  4586 H3      17.8192  25.3336  31.1198   H        35 RES35   0.0000
  4587 O1A     19.6988  32.1674  30.0721   O.3      35 RES35   0.0000
  4588 C1      17.5974  27.9706  31.1198   C.2      35 RES35   0.0000
  4589 O2A     17.2148  33.0699  31.1198   O.co2    35 RES35   0.0000
  4590 C2      16.5393  35.3269  31.1198   C.2      35 RES35   0.0000
  4591 C3      16.9013  36.6616  31.1198   C.2      35 RES35   0.0000
  4592 H3      17.8192  36.9059  31.1198   H        35 RES35   0.0000
  4593 C1      17.5974  34.2689  31.1198   C.2      35 RES35   0.0000
  4594 Zr1     20.7465  33.6041  31.1198   Zr       35 RES35   0.0000
  4595 O2A     20.7465  34.6514  33.0699   O.co2    35 RES35   0.0000
  4596 C2      20.7465  35.3269  35.3269   C.2      35 RES35   0.0000
  4597 C3      20.7465  34.9649  36.6616   C.2      35 RES35   0.0000
  4598 H3      20.7465  34.0471  36.9059   H        35 RES35   0.0000
  4599 C1      20.7465  34.2689  34.2689   C.2      35 RES35   0.0000
  4600 O2A     20.7465  34.6514  29.1696   O.co2    35 RES35   0.0000
  4601 C2      20.7465  35.3269  26.9126   C.2      35 RES35   0.0000
  4602 C3      20.7465  34.9649  25.5779   C.2      35 RES35   0.0000
  4603 H3      20.7465  34.0471  25.3336   H        35 RES35   0.0000
  4604 C1      20.7465  34.2689  27.9706   C.2      35 RES35   0.0000
  4605 Zr1     20.7465  28.6354  31.1198   Zr       35 RES35   0.0000
  4606 O2A     20.7465  27.5881  29.1696   O.co2    35 RES35   0.0000
  4607 C2      20.7465  26.9126  26.9126   C.2      35 RES35   0.0000
  4608 C3      20.7465  27.2746  25.5779   C.2      35 RES35   0.0000
  4609 H3      20.7465  28.1924  25.3336   H        35 RES35   0.0000
  4610 C1      20.7465  27.9706  27.9706   C.2      35 RES35   0.0000
  4611 O2A     20.7465  27.5881  33.0699   O.co2    35 RES35   0.0000
  4612 C2      20.7465  26.9126  35.3269   C.2      35 RES35   0.0000
  4613 C3      20.7465  27.2746  36.6616   C.2      35 RES35   0.0000
  4614 H3      20.7465  28.1924  36.9059   H        35 RES35   0.0000
  4615 C1      20.7465  27.9706  34.2689   C.2      35 RES35   0.0000
  4616 Zr1     20.7465  31.1198  28.6354   Zr       35 RES35   0.0000
  4617 O2A     20.7465  33.0699  27.5881   O.co2    35 RES35   0.0000
  4618 C3      20.7465  36.6616  27.2746   C.2      35 RES35   0.0000
  4619 H3      20.7465  36.9059  28.1924   H        35 RES35   0.0000
  4620 O1A     19.6988  30.0721  30.0721   O.3      35 RES35   0.0000
  4621 O2A     20.7465  29.1696  27.5881   O.co2    35 RES35   0.0000
  4622 C3      20.7465  25.5779  27.2746   C.2      35 RES35   0.0000
  4623 H3      20.7465  25.3336  28.1924   H        35 RES35   0.0000
  4624 O1A     21.7942  32.1674  30.0721   O.3      35 RES35   0.0000
  4625 O2A     20.7465  29.1696  34.6514   O.co2    35 RES35   0.0000
  4626 C3      20.7465  25.5779  34.9649   C.2      35 RES35   0.0000
  4627 H3      20.7465  25.3336  34.0471   H        35 RES35   0.0000
  4628 O1A     19.6988  32.1674  32.1674   O.3      35 RES35   0.0000
  4629 O2A     20.7465  33.0699  34.6514   O.co2    35 RES35   0.0000
  4630 C3      20.7465  36.6616  34.9649   C.2      35 RES35   0.0000
  4631 H3      20.7465  36.9059  34.0471   H        35 RES35   0.0000
  4632 O1A     21.7942  30.0721  32.1674   O.3      35 RES35   0.0000
  4633 O2A     22.6967  34.6514  31.1198   O.co2    35 RES35   0.0000
  4634 C3      26.2883  34.9649  31.1198   C.2      35 RES35   0.0000
  4635 H3      26.5327  34.0471  31.1198   H        35 RES35   0.0000
  4636 O2A     18.7963  34.6514  31.1198   O.co2    35 RES35   0.0000
  4637 C3      15.2047  34.9649  31.1198   C.2      35 RES35   0.0000
  4638 H3      14.9603  34.0471  31.1198   H        35 RES35   0.0000
  4639 O2A     18.7963  27.5881  31.1198   O.co2    35 RES35   0.0000
  4640 C3      15.2047  27.2746  31.1198   C.2      35 RES35   0.0000
  4641 H3      14.9603  28.1924  31.1198   H        35 RES35   0.0000
  4642 O2A     22.6967  27.5881  31.1198   O.co2    35 RES35   0.0000
  4643 C3      26.2883  27.2746  31.1198   C.2      35 RES35   0.0000
  4644 H3      26.5327  28.1924  31.1198   H        35 RES35   0.0000
  4645 O2A     24.2782  31.1198  29.1696   O.co2    35 RES35   0.0000
  4646 C2      24.9537  31.1198  26.9126   C.2      35 RES35   0.0000
  4647 C3      24.5917  31.1198  25.5779   C.2      35 RES35   0.0000
  4648 H3      23.6738  31.1198  25.3336   H        35 RES35   0.0000
  4649 C1      23.8956  31.1198  27.9706   C.2      35 RES35   0.0000
  4650 O2A     24.2782  31.1198  33.0699   O.co2    35 RES35   0.0000
  4651 C3      24.5917  31.1198  36.6616   C.2      35 RES35   0.0000
  4652 H3      23.6738  31.1198  36.9059   H        35 RES35   0.0000
  4653 O2A     17.2148  31.1198  33.0699   O.co2    35 RES35   0.0000
  4654 C3      16.9013  31.1198  36.6616   C.2      35 RES35   0.0000
  4655 H3      17.8192  31.1198  36.9059   H        35 RES35   0.0000
  4656 O2A     17.2148  31.1198  29.1696   O.co2    35 RES35   0.0000
  4657 C2      16.5393  31.1198  26.9126   C.2      35 RES35   0.0000
  4658 C3      16.9013  31.1198  25.5779   C.2      35 RES35   0.0000
  4659 H3      17.8192  31.1198  25.3336   H        35 RES35   0.0000
  4660 C1      17.5974  31.1198  27.9706   C.2      35 RES35   0.0000
  4661 O2A     18.7963  31.1198  27.5881   O.co2    35 RES35   0.0000
  4662 C3      15.2047  31.1198  27.2746   C.2      35 RES35   0.0000
  4663 H3      14.9603  31.1198  28.1924   H        35 RES35   0.0000
  4664 O2A     22.6967  31.1198  27.5881   O.co2    35 RES35   0.0000
  4665 C3      26.2883  31.1198  27.2746   C.2      35 RES35   0.0000
  4666 H3      26.5327  31.1198  28.1924   H        35 RES35   0.0000
  4667 C3      20.7465  24.5917  26.2883   C.2      35 RES35   0.0000
  4668 C3      20.7465  24.5917  35.9512   C.2      35 RES35   0.0000
  4669 C3      20.7465  37.6478  35.9512   C.2      35 RES35   0.0000
  4670 C3      20.7465  37.6478  26.2883   C.2      35 RES35   0.0000
  4671 C3      20.7465  26.2883  37.6478   C.2      35 RES35   0.0000
  4672 C3      20.7465  35.9512  37.6478   C.2      35 RES35   0.0000
  4673 C3      20.7465  35.9512  24.5917   C.2      35 RES35   0.0000
  4674 C3      20.7465  26.2883  24.5917   C.2      35 RES35   0.0000
  4675 C3      15.9151  31.1198  24.5917   C.2      35 RES35   0.0000
  4676 C3      25.5779  31.1198  24.5917   C.2      35 RES35   0.0000
  4677 C3      25.5779  31.1198  37.6478   C.2      35 RES35   0.0000
  4678 C3      15.9151  31.1198  37.6478   C.2      35 RES35   0.0000
  4679 C3      14.2184  31.1198  35.9512   C.2      35 RES35   0.0000
  4680 C3      14.2184  31.1198  26.2883   C.2      35 RES35   0.0000
  4681 C3      27.2746  31.1198  26.2883   C.2      35 RES35   0.0000
  4682 C3      27.2746  31.1198  35.9512   C.2      35 RES35   0.0000
  4683 C3      14.2184  26.2883  31.1198   C.2      35 RES35   0.0000
  4684 C3      14.2184  35.9512  31.1198   C.2      35 RES35   0.0000
  4685 C3      27.2746  35.9512  31.1198   C.2      35 RES35   0.0000
  4686 C3      27.2746  26.2883  31.1198   C.2      35 RES35   0.0000
  4687 C3      15.9151  24.5917  31.1198   C.2      35 RES35   0.0000
  4688 C3      25.5779  24.5917  31.1198   C.2      35 RES35   0.0000
  4689 C3      25.5779  37.6478  31.1198   C.2      35 RES35   0.0000
  4690 C3      15.9151  37.6478  31.1198   C.2      35 RES35   0.0000
  4691 Zr1     41.4930  10.3733  12.8576   Zr       36 RES36   0.0000
  4692 O2A     43.4432  10.3733  13.9049   O.co2    36 RES36   0.0000
  4693 C2      45.7002  10.3733  14.5804   C.2      36 RES36   0.0000
  4694 C3      47.0348  10.3733  14.2184   C.2      36 RES36   0.0000
  4695 H3      47.2792  10.3733  13.3006   H        36 RES36   0.0000
  4696 O1A     40.4453   9.3256  11.4209   O.3      36 RES36   0.0000
  4697 C1      44.6421  10.3733  13.5224   C.2      36 RES36   0.0000
  4698 O2A     39.5428  10.3733  13.9049   O.co2    36 RES36   0.0000
  4699 C2      37.2858  10.3733  14.5804   C.2      36 RES36   0.0000
  4700 C3      35.9512  10.3733  14.2184   C.2      36 RES36   0.0000
  4701 H3      35.7068  10.3733  13.3006   H        36 RES36   0.0000
  4702 O1A     42.5407  11.4209  11.4209   O.3      36 RES36   0.0000
  4703 C1      38.3439  10.3733  13.5224   C.2      36 RES36   0.0000
  4704 Zr1     43.9774  10.3733  10.3733   Zr       36 RES36   0.0000
  4705 O2A     45.0247  12.3234  10.3733   O.co2    36 RES36   0.0000
  4706 C2      45.7002  14.5804  10.3733   C.2      36 RES36   0.0000
  4707 C3      45.3382  15.9151  10.3733   C.2      36 RES36   0.0000
  4708 H3      44.4203  16.1594  10.3733   H        36 RES36   0.0000
  4709 O1A     42.5407   9.3256   9.3256   O.3      36 RES36   0.0000
  4710 C1      44.6421  13.5224  10.3733   C.2      36 RES36   0.0000
  4711 O2A     45.0247   8.4231  10.3733   O.co2    36 RES36   0.0000
  4712 C2      45.7002   6.1661  10.3733   C.2      36 RES36   0.0000
  4713 C3      45.3382   4.8314  10.3733   C.2      36 RES36   0.0000
  4714 H3      44.4203   4.5871  10.3733   H        36 RES36   0.0000
  4715 C1      44.6421   7.2241  10.3733   C.2      36 RES36   0.0000
  4716 Zr1     39.0086  10.3733  10.3733   Zr       36 RES36   0.0000
  4717 O2A     37.9613   8.4231  10.3733   O.co2    36 RES36   0.0000
  4718 C2      37.2858   6.1661  10.3733   C.2      36 RES36   0.0000
  4719 C3      37.6478   4.8314  10.3733   C.2      36 RES36   0.0000
  4720 H3      38.5657   4.5871  10.3733   H        36 RES36   0.0000
  4721 O1A     40.4453  11.4209   9.3256   O.3      36 RES36   0.0000
  4722 C1      38.3439   7.2241  10.3733   C.2      36 RES36   0.0000
  4723 O2A     37.9613  12.3234  10.3733   O.co2    36 RES36   0.0000
  4724 C2      37.2858  14.5804  10.3733   C.2      36 RES36   0.0000
  4725 C3      37.6478  15.9151  10.3733   C.2      36 RES36   0.0000
  4726 H3      38.5657  16.1594  10.3733   H        36 RES36   0.0000
  4727 C1      38.3439  13.5224  10.3733   C.2      36 RES36   0.0000
  4728 Zr1     41.4930  12.8576  10.3733   Zr       36 RES36   0.0000
  4729 O2A     41.4930  13.9049  12.3234   O.co2    36 RES36   0.0000
  4730 C2      41.4930  14.5804  14.5804   C.2      36 RES36   0.0000
  4731 C3      41.4930  14.2184  15.9151   C.2      36 RES36   0.0000
  4732 H3      41.4930  13.3006  16.1594   H        36 RES36   0.0000
  4733 C1      41.4930  13.5224  13.5224   C.2      36 RES36   0.0000
  4734 O2A     41.4930  13.9049   8.4231   O.co2    36 RES36   0.0000
  4735 C2      41.4930  14.5804   6.1661   C.2      36 RES36   0.0000
  4736 C3      41.4930  14.2184   4.8314   C.2      36 RES36   0.0000
  4737 H3      41.4930  13.3006   4.5871   H        36 RES36   0.0000
  4738 C1      41.4930  13.5224   7.2241   C.2      36 RES36   0.0000
  4739 Zr1     41.4930   7.8889  10.3733   Zr       36 RES36   0.0000
  4740 O2A     41.4930   6.8416   8.4231   O.co2    36 RES36   0.0000
  4741 C2      41.4930   6.1661   6.1661   C.2      36 RES36   0.0000
  4742 C3      41.4930   6.5281   4.8314   C.2      36 RES36   0.0000
  4743 H3      41.4930   7.4459   4.5871   H        36 RES36   0.0000
  4744 C1      41.4930   7.2241   7.2241   C.2      36 RES36   0.0000
  4745 O2A     41.4930   6.8416  12.3234   O.co2    36 RES36   0.0000
  4746 C2      41.4930   6.1661  14.5804   C.2      36 RES36   0.0000
  4747 C3      41.4930   6.5281  15.9151   C.2      36 RES36   0.0000
  4748 H3      41.4930   7.4459  16.1594   H        36 RES36   0.0000
  4749 C1      41.4930   7.2241  13.5224   C.2      36 RES36   0.0000
  4750 Zr1     41.4930  10.3733   7.8889   Zr       36 RES36   0.0000
  4751 O2A     41.4930  12.3234   6.8416   O.co2    36 RES36   0.0000
  4752 C3      41.4930  15.9151   6.5281   C.2      36 RES36   0.0000
  4753 H3      41.4930  16.1594   7.4459   H        36 RES36   0.0000
  4754 O1A     40.4453   9.3256   9.3256   O.3      36 RES36   0.0000
  4755 O2A     41.4930   8.4231   6.8416   O.co2    36 RES36   0.0000
  4756 C3      41.4930   4.8314   6.5281   C.2      36 RES36   0.0000
  4757 H3      41.4930   4.5871   7.4459   H        36 RES36   0.0000
  4758 O1A     42.5407  11.4209   9.3256   O.3      36 RES36   0.0000
  4759 O2A     41.4930   8.4231  13.9049   O.co2    36 RES36   0.0000
  4760 C3      41.4930   4.8314  14.2184   C.2      36 RES36   0.0000
  4761 H3      41.4930   4.5871  13.3006   H        36 RES36   0.0000
  4762 O1A     40.4453  11.4209  11.4209   O.3      36 RES36   0.0000
  4763 O2A     41.4930  12.3234  13.9049   O.co2    36 RES36   0.0000
  4764 C3      41.4930  15.9151  14.2184   C.2      36 RES36   0.0000
  4765 H3      41.4930  16.1594  13.3006   H        36 RES36   0.0000
  4766 O1A     42.5407   9.3256  11.4209   O.3      36 RES36   0.0000
  4767 O2A     43.4432  13.9049  10.3733   O.co2    36 RES36   0.0000
  4768 C3      47.0348  14.2184  10.3733   C.2      36 RES36   0.0000
  4769 H3      47.2792  13.3006  10.3733   H        36 RES36   0.0000
  4770 O2A     39.5428  13.9049  10.3733   O.co2    36 RES36   0.0000
  4771 C3      35.9512  14.2184  10.3733   C.2      36 RES36   0.0000
  4772 H3      35.7068  13.3006  10.3733   H        36 RES36   0.0000
  4773 O2A     39.5428   6.8416  10.3733   O.co2    36 RES36   0.0000
  4774 C3      35.9512   6.5281  10.3733   C.2      36 RES36   0.0000
  4775 H3      35.7068   7.4459  10.3733   H        36 RES36   0.0000
  4776 O2A     43.4432   6.8416  10.3733   O.co2    36 RES36   0.0000
  4777 C3      47.0348   6.5281  10.3733   C.2      36 RES36   0.0000
  4778 H3      47.2792   7.4459  10.3733   H        36 RES36   0.0000
  4779 O2A     45.0247  10.3733   8.4231   O.co2    36 RES36   0.0000
  4780 C2      45.7002  10.3733   6.1661   C.2      36 RES36   0.0000
  4781 C3      45.3382  10.3733   4.8314   C.2      36 RES36   0.0000
  4782 H3      44.4203  10.3733   4.5871   H        36 RES36   0.0000
  4783 C1      44.6421  10.3733   7.2241   C.2      36 RES36   0.0000
  4784 O2A     45.0247  10.3733  12.3234   O.co2    36 RES36   0.0000
  4785 C3      45.3382  10.3733  15.9151   C.2      36 RES36   0.0000
  4786 H3      44.4203  10.3733  16.1594   H        36 RES36   0.0000
  4787 O2A     37.9613  10.3733  12.3234   O.co2    36 RES36   0.0000
  4788 C3      37.6478  10.3733  15.9151   C.2      36 RES36   0.0000
  4789 H3      38.5657  10.3733  16.1594   H        36 RES36   0.0000
  4790 O2A     37.9613  10.3733   8.4231   O.co2    36 RES36   0.0000
  4791 C2      37.2858  10.3733   6.1661   C.2      36 RES36   0.0000
  4792 C3      37.6478  10.3733   4.8314   C.2      36 RES36   0.0000
  4793 H3      38.5657  10.3733   4.5871   H        36 RES36   0.0000
  4794 C1      38.3439  10.3733   7.2241   C.2      36 RES36   0.0000
  4795 O2A     39.5428  10.3733   6.8416   O.co2    36 RES36   0.0000
  4796 C3      35.9512  10.3733   6.5281   C.2      36 RES36   0.0000
  4797 H3      35.7068  10.3733   7.4459   H        36 RES36   0.0000
  4798 O2A     43.4432  10.3733   6.8416   O.co2    36 RES36   0.0000
  4799 C3      47.0348  10.3733   6.5281   C.2      36 RES36   0.0000
  4800 H3      47.2792  10.3733   7.4459   H        36 RES36   0.0000
  4801 C3      41.4930   3.8452   5.5418   C.2      36 RES36   0.0000
  4802 C3      41.4930   3.8452  15.2047   C.2      36 RES36   0.0000
  4803 C3      41.4930  16.9013  15.2047   C.2      36 RES36   0.0000
  4804 C3      41.4930  16.9013   5.5418   C.2      36 RES36   0.0000
  4805 C3      41.4930   5.5418  16.9013   C.2      36 RES36   0.0000
  4806 C3      41.4930  15.2047  16.9013   C.2      36 RES36   0.0000
  4807 C3      41.4930  15.2047   3.8452   C.2      36 RES36   0.0000
  4808 C3      41.4930   5.5418   3.8452   C.2      36 RES36   0.0000
  4809 C3      36.6616  10.3733   3.8452   C.2      36 RES36   0.0000
  4810 C3      46.3244  10.3733   3.8452   C.2      36 RES36   0.0000
  4811 C3      46.3244  10.3733  16.9013   C.2      36 RES36   0.0000
  4812 C3      36.6616  10.3733  16.9013   C.2      36 RES36   0.0000
  4813 C3      34.9649  10.3733  15.2047   C.2      36 RES36   0.0000
  4814 C3      34.9649  10.3733   5.5418   C.2      36 RES36   0.0000
  4815 C3      48.0211  10.3733   5.5418   C.2      36 RES36   0.0000
  4816 C3      48.0211  10.3733  15.2047   C.2      36 RES36   0.0000
  4817 C3      34.9649   5.5418  10.3733   C.2      36 RES36   0.0000
  4818 C3      34.9649  15.2047  10.3733   C.2      36 RES36   0.0000
  4819 C3      48.0211  15.2047  10.3733   C.2      36 RES36   0.0000
  4820 C3      48.0211   5.5418  10.3733   C.2      36 RES36   0.0000
  4821 C3      36.6616   3.8452  10.3733   C.2      36 RES36   0.0000
  4822 C3      46.3244   3.8452  10.3733   C.2      36 RES36   0.0000
  4823 C3      46.3244  16.9013  10.3733   C.2      36 RES36   0.0000
  4824 C3      36.6616  16.9013  10.3733   C.2      36 RES36   0.0000
  4825 Zr1     41.4930  10.3733  33.6041   Zr       37 RES37   0.0000
  4826 O2A     43.4432  10.3733  34.6514   O.co2    37 RES37   0.0000
  4827 C2      45.7002  10.3733  35.3269   C.2      37 RES37   0.0000
  4828 C3      47.0348  10.3733  34.9649   C.2      37 RES37   0.0000
  4829 H3      47.2792  10.3733  34.0471   H        37 RES37   0.0000
  4830 O1A     40.4453   9.3256  32.1674   O.3      37 RES37   0.0000
  4831 C1      44.6421  10.3733  34.2689   C.2      37 RES37   0.0000
  4832 O2A     39.5428  10.3733  34.6514   O.co2    37 RES37   0.0000
  4833 C2      37.2858  10.3733  35.3269   C.2      37 RES37   0.0000
  4834 C3      35.9512  10.3733  34.9649   C.2      37 RES37   0.0000
  4835 H3      35.7068  10.3733  34.0471   H        37 RES37   0.0000
  4836 O1A     42.5407  11.4209  32.1674   O.3      37 RES37   0.0000
  4837 C1      38.3439  10.3733  34.2689   C.2      37 RES37   0.0000
  4838 Zr1     43.9774  10.3733  31.1198   Zr       37 RES37   0.0000
  4839 O2A     45.0247  12.3234  31.1198   O.co2    37 RES37   0.0000
  4840 C2      45.7002  14.5804  31.1198   C.2      37 RES37   0.0000
  4841 C3      45.3382  15.9151  31.1198   C.2      37 RES37   0.0000
  4842 H3      44.4203  16.1594  31.1198   H        37 RES37   0.0000
  4843 O1A     42.5407   9.3256  30.0721   O.3      37 RES37   0.0000
  4844 C1      44.6421  13.5224  31.1198   C.2      37 RES37   0.0000
  4845 O2A     45.0247   8.4231  31.1198   O.co2    37 RES37   0.0000
  4846 C2      45.7002   6.1661  31.1198   C.2      37 RES37   0.0000
  4847 C3      45.3382   4.8314  31.1198   C.2      37 RES37   0.0000
  4848 H3      44.4203   4.5871  31.1198   H        37 RES37   0.0000
  4849 C1      44.6421   7.2241  31.1198   C.2      37 RES37   0.0000
  4850 Zr1     39.0086  10.3733  31.1198   Zr       37 RES37   0.0000
  4851 O2A     37.9613   8.4231  31.1198   O.co2    37 RES37   0.0000
  4852 C2      37.2858   6.1661  31.1198   C.2      37 RES37   0.0000
  4853 C3      37.6478   4.8314  31.1198   C.2      37 RES37   0.0000
  4854 H3      38.5657   4.5871  31.1198   H        37 RES37   0.0000
  4855 O1A     40.4453  11.4209  30.0721   O.3      37 RES37   0.0000
  4856 C1      38.3439   7.2241  31.1198   C.2      37 RES37   0.0000
  4857 O2A     37.9613  12.3234  31.1198   O.co2    37 RES37   0.0000
  4858 C2      37.2858  14.5804  31.1198   C.2      37 RES37   0.0000
  4859 C3      37.6478  15.9151  31.1198   C.2      37 RES37   0.0000
  4860 H3      38.5657  16.1594  31.1198   H        37 RES37   0.0000
  4861 C1      38.3439  13.5224  31.1198   C.2      37 RES37   0.0000
  4862 Zr1     41.4930  12.8576  31.1198   Zr       37 RES37   0.0000
  4863 O2A     41.4930  13.9049  33.0699   O.co2    37 RES37   0.0000
  4864 C2      41.4930  14.5804  35.3269   C.2      37 RES37   0.0000
  4865 C3      41.4930  14.2184  36.6616   C.2      37 RES37   0.0000
  4866 H3      41.4930  13.3006  36.9059   H        37 RES37   0.0000
  4867 C1      41.4930  13.5224  34.2689   C.2      37 RES37   0.0000
  4868 O2A     41.4930  13.9049  29.1696   O.co2    37 RES37   0.0000
  4869 C2      41.4930  14.5804  26.9126   C.2      37 RES37   0.0000
  4870 C3      41.4930  14.2184  25.5779   C.2      37 RES37   0.0000
  4871 H3      41.4930  13.3006  25.3336   H        37 RES37   0.0000
  4872 C1      41.4930  13.5224  27.9706   C.2      37 RES37   0.0000
  4873 Zr1     41.4930   7.8889  31.1198   Zr       37 RES37   0.0000
  4874 O2A     41.4930   6.8416  29.1696   O.co2    37 RES37   0.0000
  4875 C2      41.4930   6.1661  26.9126   C.2      37 RES37   0.0000
  4876 C3      41.4930   6.5281  25.5779   C.2      37 RES37   0.0000
  4877 H3      41.4930   7.4459  25.3336   H        37 RES37   0.0000
  4878 C1      41.4930   7.2241  27.9706   C.2      37 RES37   0.0000
  4879 O2A     41.4930   6.8416  33.0699   O.co2    37 RES37   0.0000
  4880 C2      41.4930   6.1661  35.3269   C.2      37 RES37   0.0000
  4881 C3      41.4930   6.5281  36.6616   C.2      37 RES37   0.0000
  4882 H3      41.4930   7.4459  36.9059   H        37 RES37   0.0000
  4883 C1      41.4930   7.2241  34.2689   C.2      37 RES37   0.0000
  4884 Zr1     41.4930  10.3733  28.6354   Zr       37 RES37   0.0000
  4885 O2A     41.4930  12.3234  27.5881   O.co2    37 RES37   0.0000
  4886 C3      41.4930  15.9151  27.2746   C.2      37 RES37   0.0000
  4887 H3      41.4930  16.1594  28.1924   H        37 RES37   0.0000
  4888 O1A     40.4453   9.3256  30.0721   O.3      37 RES37   0.0000
  4889 O2A     41.4930   8.4231  27.5881   O.co2    37 RES37   0.0000
  4890 C3      41.4930   4.8314  27.2746   C.2      37 RES37   0.0000
  4891 H3      41.4930   4.5871  28.1924   H        37 RES37   0.0000
  4892 O1A     42.5407  11.4209  30.0721   O.3      37 RES37   0.0000
  4893 O2A     41.4930   8.4231  34.6514   O.co2    37 RES37   0.0000
  4894 C3      41.4930   4.8314  34.9649   C.2      37 RES37   0.0000
  4895 H3      41.4930   4.5871  34.0471   H        37 RES37   0.0000
  4896 O1A     40.4453  11.4209  32.1674   O.3      37 RES37   0.0000
  4897 O2A     41.4930  12.3234  34.6514   O.co2    37 RES37   0.0000
  4898 C3      41.4930  15.9151  34.9649   C.2      37 RES37   0.0000
  4899 H3      41.4930  16.1594  34.0471   H        37 RES37   0.0000
  4900 O1A     42.5407   9.3256  32.1674   O.3      37 RES37   0.0000
  4901 O2A     43.4432  13.9049  31.1198   O.co2    37 RES37   0.0000
  4902 C3      47.0348  14.2184  31.1198   C.2      37 RES37   0.0000
  4903 H3      47.2792  13.3006  31.1198   H        37 RES37   0.0000
  4904 O2A     39.5428  13.9049  31.1198   O.co2    37 RES37   0.0000
  4905 C3      35.9512  14.2184  31.1198   C.2      37 RES37   0.0000
  4906 H3      35.7068  13.3006  31.1198   H        37 RES37   0.0000
  4907 O2A     39.5428   6.8416  31.1198   O.co2    37 RES37   0.0000
  4908 C3      35.9512   6.5281  31.1198   C.2      37 RES37   0.0000
  4909 H3      35.7068   7.4459  31.1198   H        37 RES37   0.0000
  4910 O2A     43.4432   6.8416  31.1198   O.co2    37 RES37   0.0000
  4911 C3      47.0348   6.5281  31.1198   C.2      37 RES37   0.0000
  4912 H3      47.2792   7.4459  31.1198   H        37 RES37   0.0000
  4913 O2A     45.0247  10.3733  29.1696   O.co2    37 RES37   0.0000
  4914 C2      45.7002  10.3733  26.9126   C.2      37 RES37   0.0000
  4915 C3      45.3382  10.3733  25.5779   C.2      37 RES37   0.0000
  4916 H3      44.4203  10.3733  25.3336   H        37 RES37   0.0000
  4917 C1      44.6421  10.3733  27.9706   C.2      37 RES37   0.0000
  4918 O2A     45.0247  10.3733  33.0699   O.co2    37 RES37   0.0000
  4919 C3      45.3382  10.3733  36.6616   C.2      37 RES37   0.0000
  4920 H3      44.4203  10.3733  36.9059   H        37 RES37   0.0000
  4921 O2A     37.9613  10.3733  33.0699   O.co2    37 RES37   0.0000
  4922 C3      37.6478  10.3733  36.6616   C.2      37 RES37   0.0000
  4923 H3      38.5657  10.3733  36.9059   H        37 RES37   0.0000
  4924 O2A     37.9613  10.3733  29.1696   O.co2    37 RES37   0.0000
  4925 C2      37.2858  10.3733  26.9126   C.2      37 RES37   0.0000
  4926 C3      37.6478  10.3733  25.5779   C.2      37 RES37   0.0000
  4927 H3      38.5657  10.3733  25.3336   H        37 RES37   0.0000
  4928 C1      38.3439  10.3733  27.9706   C.2      37 RES37   0.0000
  4929 O2A     39.5428  10.3733  27.5881   O.co2    37 RES37   0.0000
  4930 C3      35.9512  10.3733  27.2746   C.2      37 RES37   0.0000
  4931 H3      35.7068  10.3733  28.1924   H        37 RES37   0.0000
  4932 O2A     43.4432  10.3733  27.5881   O.co2    37 RES37   0.0000
  4933 C3      47.0348  10.3733  27.2746   C.2      37 RES37   0.0000
  4934 H3      47.2792  10.3733  28.1924   H        37 RES37   0.0000
  4935 C3      41.4930   3.8452  26.2883   C.2      37 RES37   0.0000
  4936 C3      41.4930   3.8452  35.9512   C.2      37 RES37   0.0000
  4937 C3      41.4930  16.9013  35.9512   C.2      37 RES37   0.0000
  4938 C3      41.4930  16.9013  26.2883   C.2      37 RES37   0.0000
  4939 C3      41.4930   5.5418  37.6478   C.2      37 RES37   0.0000
  4940 C3      41.4930  15.2047  37.6478   C.2      37 RES37   0.0000
  4941 C3      41.4930  15.2047  24.5917   C.2      37 RES37   0.0000
  4942 C3      41.4930   5.5418  24.5917   C.2      37 RES37   0.0000
  4943 C3      36.6616  10.3733  24.5917   C.2      37 RES37   0.0000
  4944 C3      46.3244  10.3733  24.5917   C.2      37 RES37   0.0000
  4945 C3      46.3244  10.3733  37.6478   C.2      37 RES37   0.0000
  4946 C3      36.6616  10.3733  37.6478   C.2      37 RES37   0.0000
  4947 C3      34.9649  10.3733  35.9512   C.2      37 RES37   0.0000
  4948 C3      34.9649  10.3733  26.2883   C.2      37 RES37   0.0000
  4949 C3      48.0211  10.3733  26.2883   C.2      37 RES37   0.0000
  4950 C3      48.0211  10.3733  35.9512   C.2      37 RES37   0.0000
  4951 C3      34.9649   5.5418  31.1198   C.2      37 RES37   0.0000
  4952 C3      34.9649  15.2047  31.1198   C.2      37 RES37   0.0000
  4953 C3      48.0211  15.2047  31.1198   C.2      37 RES37   0.0000
  4954 C3      48.0211   5.5418  31.1198   C.2      37 RES37   0.0000
  4955 C3      36.6616   3.8452  31.1198   C.2      37 RES37   0.0000
  4956 C3      46.3244   3.8452  31.1198   C.2      37 RES37   0.0000
  4957 C3      46.3244  16.9013  31.1198   C.2      37 RES37   0.0000
  4958 C3      36.6616  16.9013  31.1198   C.2      37 RES37   0.0000
  4959 Zr1     41.4930  31.1198  12.8576   Zr       38 RES38   0.0000
  4960 O2A     43.4432  31.1198  13.9049   O.co2    38 RES38   0.0000
  4961 C2      45.7002  31.1198  14.5804   C.2      38 RES38   0.0000
  4962 C3      47.0348  31.1198  14.2184   C.2      38 RES38   0.0000
  4963 H3      47.2792  31.1198  13.3006   H        38 RES38   0.0000
  4964 O1A     40.4453  30.0721  11.4209   O.3      38 RES38   0.0000
  4965 C1      44.6421  31.1198  13.5224   C.2      38 RES38   0.0000
  4966 O2A     39.5428  31.1198  13.9049   O.co2    38 RES38   0.0000
  4967 C2      37.2858  31.1198  14.5804   C.2      38 RES38   0.0000
  4968 C3      35.9512  31.1198  14.2184   C.2      38 RES38   0.0000
  4969 H3      35.7068  31.1198  13.3006   H        38 RES38   0.0000
  4970 O1A     42.5407  32.1674  11.4209   O.3      38 RES38   0.0000
  4971 C1      38.3439  31.1198  13.5224   C.2      38 RES38   0.0000
  4972 Zr1     43.9774  31.1198  10.3733   Zr       38 RES38   0.0000
  4973 O2A     45.0247  33.0699  10.3733   O.co2    38 RES38   0.0000
  4974 C2      45.7002  35.3269  10.3733   C.2      38 RES38   0.0000
  4975 C3      45.3382  36.6616  10.3733   C.2      38 RES38   0.0000
  4976 H3      44.4203  36.9059  10.3733   H        38 RES38   0.0000
  4977 O1A     42.5407  30.0721   9.3256   O.3      38 RES38   0.0000
  4978 C1      44.6421  34.2689  10.3733   C.2      38 RES38   0.0000
  4979 O2A     45.0247  29.1696  10.3733   O.co2    38 RES38   0.0000
  4980 C2      45.7002  26.9126  10.3733   C.2      38 RES38   0.0000
  4981 C3      45.3382  25.5779  10.3733   C.2      38 RES38   0.0000
  4982 H3      44.4203  25.3336  10.3733   H        38 RES38   0.0000
  4983 C1      44.6421  27.9706  10.3733   C.2      38 RES38   0.0000
  4984 Zr1     39.0086  31.1198  10.3733   Zr       38 RES38   0.0000
  4985 O2A     37.9613  29.1696  10.3733   O.co2    38 RES38   0.0000
  4986 C2      37.2858  26.9126  10.3733   C.2      38 RES38   0.0000
  4987 C3      37.6478  25.5779  10.3733   C.2      38 RES38   0.0000
  4988 H3      38.5657  25.3336  10.3733   H        38 RES38   0.0000
  4989 O1A     40.4453  32.1674   9.3256   O.3      38 RES38   0.0000
  4990 C1      38.3439  27.9706  10.3733   C.2      38 RES38   0.0000
  4991 O2A     37.9613  33.0699  10.3733   O.co2    38 RES38   0.0000
  4992 C2      37.2858  35.3269  10.3733   C.2      38 RES38   0.0000
  4993 C3      37.6478  36.6616  10.3733   C.2      38 RES38   0.0000
  4994 H3      38.5657  36.9059  10.3733   H        38 RES38   0.0000
  4995 C1      38.3439  34.2689  10.3733   C.2      38 RES38   0.0000
  4996 Zr1     41.4930  33.6041  10.3733   Zr       38 RES38   0.0000
  4997 O2A     41.4930  34.6514  12.3234   O.co2    38 RES38   0.0000
  4998 C2      41.4930  35.3269  14.5804   C.2      38 RES38   0.0000
  4999 C3      41.4930  34.9649  15.9151   C.2      38 RES38   0.0000
  5000 H3      41.4930  34.0471  16.1594   H        38 RES38   0.0000
  5001 C1      41.4930  34.2689  13.5224   C.2      38 RES38   0.0000
  5002 O2A     41.4930  34.6514   8.4231   O.co2    38 RES38   0.0000
  5003 C2      41.4930  35.3269   6.1661   C.2      38 RES38   0.0000
  5004 C3      41.4930  34.9649   4.8314   C.2      38 RES38   0.0000
  5005 H3      41.4930  34.0471   4.5871   H        38 RES38   0.0000
  5006 C1      41.4930  34.2689   7.2241   C.2      38 RES38   0.0000
  5007 Zr1     41.4930  28.6354  10.3733   Zr       38 RES38   0.0000
  5008 O2A     41.4930  27.5881   8.4231   O.co2    38 RES38   0.0000
  5009 C2      41.4930  26.9126   6.1661   C.2      38 RES38   0.0000
  5010 C3      41.4930  27.2746   4.8314   C.2      38 RES38   0.0000
  5011 H3      41.4930  28.1924   4.5871   H        38 RES38   0.0000
  5012 C1      41.4930  27.9706   7.2241   C.2      38 RES38   0.0000
  5013 O2A     41.4930  27.5881  12.3234   O.co2    38 RES38   0.0000
  5014 C2      41.4930  26.9126  14.5804   C.2      38 RES38   0.0000
  5015 C3      41.4930  27.2746  15.9151   C.2      38 RES38   0.0000
  5016 H3      41.4930  28.1924  16.1594   H        38 RES38   0.0000
  5017 C1      41.4930  27.9706  13.5224   C.2      38 RES38   0.0000
  5018 Zr1     41.4930  31.1198   7.8889   Zr       38 RES38   0.0000
  5019 O2A     41.4930  33.0699   6.8416   O.co2    38 RES38   0.0000
  5020 C3      41.4930  36.6616   6.5281   C.2      38 RES38   0.0000
  5021 H3      41.4930  36.9059   7.4459   H        38 RES38   0.0000
  5022 O1A     40.4453  30.0721   9.3256   O.3      38 RES38   0.0000
  5023 O2A     41.4930  29.1696   6.8416   O.co2    38 RES38   0.0000
  5024 C3      41.4930  25.5779   6.5281   C.2      38 RES38   0.0000
  5025 H3      41.4930  25.3336   7.4459   H        38 RES38   0.0000
  5026 O1A     42.5407  32.1674   9.3256   O.3      38 RES38   0.0000
  5027 O2A     41.4930  29.1696  13.9049   O.co2    38 RES38   0.0000
  5028 C3      41.4930  25.5779  14.2184   C.2      38 RES38   0.0000
  5029 H3      41.4930  25.3336  13.3006   H        38 RES38   0.0000
  5030 O1A     40.4453  32.1674  11.4209   O.3      38 RES38   0.0000
  5031 O2A     41.4930  33.0699  13.9049   O.co2    38 RES38   0.0000
  5032 C3      41.4930  36.6616  14.2184   C.2      38 RES38   0.0000
  5033 H3      41.4930  36.9059  13.3006   H        38 RES38   0.0000
  5034 O1A     42.5407  30.0721  11.4209   O.3      38 RES38   0.0000
  5035 O2A     43.4432  34.6514  10.3733   O.co2    38 RES38   0.0000
  5036 C3      47.0348  34.9649  10.3733   C.2      38 RES38   0.0000
  5037 H3      47.2792  34.0471  10.3733   H        38 RES38   0.0000
  5038 O2A     39.5428  34.6514  10.3733   O.co2    38 RES38   0.0000
  5039 C3      35.9512  34.9649  10.3733   C.2      38 RES38   0.0000
  5040 H3      35.7068  34.0471  10.3733   H        38 RES38   0.0000
  5041 O2A     39.5428  27.5881  10.3733   O.co2    38 RES38   0.0000
  5042 C3      35.9512  27.2746  10.3733   C.2      38 RES38   0.0000
  5043 H3      35.7068  28.1924  10.3733   H        38 RES38   0.0000
  5044 O2A     43.4432  27.5881  10.3733   O.co2    38 RES38   0.0000
  5045 C3      47.0348  27.2746  10.3733   C.2      38 RES38   0.0000
  5046 H3      47.2792  28.1924  10.3733   H        38 RES38   0.0000
  5047 O2A     45.0247  31.1198   8.4231   O.co2    38 RES38   0.0000
  5048 C2      45.7002  31.1198   6.1661   C.2      38 RES38   0.0000
  5049 C3      45.3382  31.1198   4.8314   C.2      38 RES38   0.0000
  5050 H3      44.4203  31.1198   4.5871   H        38 RES38   0.0000
  5051 C1      44.6421  31.1198   7.2241   C.2      38 RES38   0.0000
  5052 O2A     45.0247  31.1198  12.3234   O.co2    38 RES38   0.0000
  5053 C3      45.3382  31.1198  15.9151   C.2      38 RES38   0.0000
  5054 H3      44.4203  31.1198  16.1594   H        38 RES38   0.0000
  5055 O2A     37.9613  31.1198  12.3234   O.co2    38 RES38   0.0000
  5056 C3      37.6478  31.1198  15.9151   C.2      38 RES38   0.0000
  5057 H3      38.5657  31.1198  16.1594   H        38 RES38   0.0000
  5058 O2A     37.9613  31.1198   8.4231   O.co2    38 RES38   0.0000
  5059 C2      37.2858  31.1198   6.1661   C.2      38 RES38   0.0000
  5060 C3      37.6478  31.1198   4.8314   C.2      38 RES38   0.0000
  5061 H3      38.5657  31.1198   4.5871   H        38 RES38   0.0000
  5062 C1      38.3439  31.1198   7.2241   C.2      38 RES38   0.0000
  5063 O2A     39.5428  31.1198   6.8416   O.co2    38 RES38   0.0000
  5064 C3      35.9512  31.1198   6.5281   C.2      38 RES38   0.0000
  5065 H3      35.7068  31.1198   7.4459   H        38 RES38   0.0000
  5066 O2A     43.4432  31.1198   6.8416   O.co2    38 RES38   0.0000
  5067 C3      47.0348  31.1198   6.5281   C.2      38 RES38   0.0000
  5068 H3      47.2792  31.1198   7.4459   H        38 RES38   0.0000
  5069 C3      41.4930  24.5917   5.5418   C.2      38 RES38   0.0000
  5070 C3      41.4930  24.5917  15.2047   C.2      38 RES38   0.0000
  5071 C3      41.4930  37.6478  15.2047   C.2      38 RES38   0.0000
  5072 C3      41.4930  37.6478   5.5418   C.2      38 RES38   0.0000
  5073 C3      41.4930  26.2883  16.9013   C.2      38 RES38   0.0000
  5074 C3      41.4930  35.9512  16.9013   C.2      38 RES38   0.0000
  5075 C3      41.4930  35.9512   3.8452   C.2      38 RES38   0.0000
  5076 C3      41.4930  26.2883   3.8452   C.2      38 RES38   0.0000
  5077 C3      36.6616  31.1198   3.8452   C.2      38 RES38   0.0000
  5078 C3      46.3244  31.1198   3.8452   C.2      38 RES38   0.0000
  5079 C3      46.3244  31.1198  16.9013   C.2      38 RES38   0.0000
  5080 C3      36.6616  31.1198  16.9013   C.2      38 RES38   0.0000
  5081 C3      34.9649  31.1198  15.2047   C.2      38 RES38   0.0000
  5082 C3      34.9649  31.1198   5.5418   C.2      38 RES38   0.0000
  5083 C3      48.0211  31.1198   5.5418   C.2      38 RES38   0.0000
  5084 C3      48.0211  31.1198  15.2047   C.2      38 RES38   0.0000
  5085 C3      34.9649  26.2883  10.3733   C.2      38 RES38   0.0000
  5086 C3      34.9649  35.9512  10.3733   C.2      38 RES38   0.0000
  5087 C3      48.0211  35.9512  10.3733   C.2      38 RES38   0.0000
  5088 C3      48.0211  26.2883  10.3733   C.2      38 RES38   0.0000
  5089 C3      36.6616  24.5917  10.3733   C.2      38 RES38   0.0000
  5090 C3      46.3244  24.5917  10.3733   C.2      38 RES38   0.0000
  5091 C3      46.3244  37.6478  10.3733   C.2      38 RES38   0.0000
  5092 C3      36.6616  37.6478  10.3733   C.2      38 RES38   0.0000
  5093 Zr1     41.4930  31.1198  33.6041   Zr       39 RES39   0.0000
  5094 O2A     43.4432  31.1198  34.6514   O.co2    39 RES39   0.0000
  5095 C2      45.7002  31.1198  35.3269   C.2      39 RES39   0.0000
  5096 C3      47.0348  31.1198  34.9649   C.2      39 RES39   0.0000
  5097 H3      47.2792  31.1198  34.0471   H        39 RES39   0.0000
  5098 O1A     40.4453  30.0721  32.1674   O.3      39 RES39   0.0000
  5099 C1      44.6421  31.1198  34.2689   C.2      39 RES39   0.0000
  5100 O2A     39.5428  31.1198  34.6514   O.co2    39 RES39   0.0000
  5101 C2      37.2858  31.1198  35.3269   C.2      39 RES39   0.0000
  5102 C3      35.9512  31.1198  34.9649   C.2      39 RES39   0.0000
  5103 H3      35.7068  31.1198  34.0471   H        39 RES39   0.0000
  5104 O1A     42.5407  32.1674  32.1674   O.3      39 RES39   0.0000
  5105 C1      38.3439  31.1198  34.2689   C.2      39 RES39   0.0000
  5106 Zr1     43.9774  31.1198  31.1198   Zr       39 RES39   0.0000
  5107 O2A     45.0247  33.0699  31.1198   O.co2    39 RES39   0.0000
  5108 C2      45.7002  35.3269  31.1198   C.2      39 RES39   0.0000
  5109 C3      45.3382  36.6616  31.1198   C.2      39 RES39   0.0000
  5110 H3      44.4203  36.9059  31.1198   H        39 RES39   0.0000
  5111 O1A     42.5407  30.0721  30.0721   O.3      39 RES39   0.0000
  5112 C1      44.6421  34.2689  31.1198   C.2      39 RES39   0.0000
  5113 O2A     45.0247  29.1696  31.1198   O.co2    39 RES39   0.0000
  5114 C2      45.7002  26.9126  31.1198   C.2      39 RES39   0.0000
  5115 C3      45.3382  25.5779  31.1198   C.2      39 RES39   0.0000
  5116 H3      44.4203  25.3336  31.1198   H        39 RES39   0.0000
  5117 C1      44.6421  27.9706  31.1198   C.2      39 RES39   0.0000
  5118 Zr1     39.0086  31.1198  31.1198   Zr       39 RES39   0.0000
  5119 O2A     37.9613  29.1696  31.1198   O.co2    39 RES39   0.0000
  5120 C2      37.2858  26.9126  31.1198   C.2      39 RES39   0.0000
  5121 C3      37.6478  25.5779  31.1198   C.2      39 RES39   0.0000
  5122 H3      38.5657  25.3336  31.1198   H        39 RES39   0.0000
  5123 O1A     40.4453  32.1674  30.0721   O.3      39 RES39   0.0000
  5124 C1      38.3439  27.9706  31.1198   C.2      39 RES39   0.0000
  5125 O2A     37.9613  33.0699  31.1198   O.co2    39 RES39   0.0000
  5126 C2      37.2858  35.3269  31.1198   C.2      39 RES39   0.0000
  5127 C3      37.6478  36.6616  31.1198   C.2      39 RES39   0.0000
  5128 H3      38.5657  36.9059  31.1198   H        39 RES39   0.0000
  5129 C1      38.3439  34.2689  31.1198   C.2      39 RES39   0.0000
  5130 Zr1     41.4930  33.6041  31.1198   Zr       39 RES39   0.0000
  5131 O2A     41.4930  34.6514  33.0699   O.co2    39 RES39   0.0000
  5132 C2      41.4930  35.3269  35.3269   C.2      39 RES39   0.0000
  5133 C3      41.4930  34.9649  36.6616   C.2      39 RES39   0.0000
  5134 H3      41.4930  34.0471  36.9059   H        39 RES39   0.0000
  5135 C1      41.4930  34.2689  34.2689   C.2      39 RES39   0.0000
  5136 O2A     41.4930  34.6514  29.1696   O.co2    39 RES39   0.0000
  5137 C2      41.4930  35.3269  26.9126   C.2      39 RES39   0.0000
  5138 C3      41.4930  34.9649  25.5779   C.2      39 RES39   0.0000
  5139 H3      41.4930  34.0471  25.3336   H        39 RES39   0.0000
  5140 C1      41.4930  34.2689  27.9706   C.2      39 RES39   0.0000
  5141 Zr1     41.4930  28.6354  31.1198   Zr       39 RES39   0.0000
  5142 O2A     41.4930  27.5881  29.1696   O.co2    39 RES39   0.0000
  5143 C2      41.4930  26.9126  26.9126   C.2      39 RES39   0.0000
  5144 C3      41.4930  27.2746  25.5779   C.2      39 RES39   0.0000
  5145 H3      41.4930  28.1924  25.3336   H        39 RES39   0.0000
  5146 C1      41.4930  27.9706  27.9706   C.2      39 RES39   0.0000
  5147 O2A     41.4930  27.5881  33.0699   O.co2    39 RES39   0.0000
  5148 C2      41.4930  26.9126  35.3269   C.2      39 RES39   0.0000
  5149 C3      41.4930  27.2746  36.6616   C.2      39 RES39   0.0000
  5150 H3      41.4930  28.1924  36.9059   H        39 RES39   0.0000
  5151 C1      41.4930  27.9706  34.2689   C.2      39 RES39   0.0000
  5152 Zr1     41.4930  31.1198  28.6354   Zr       39 RES39   0.0000
  5153 O2A     41.4930  33.0699  27.5881   O.co2    39 RES39   0.0000
  5154 C3      41.4930  36.6616  27.2746   C.2      39 RES39   0.0000
  5155 H3      41.4930  36.9059  28.1924   H        39 RES39   0.0000
  5156 O1A     40.4453  30.0721  30.0721   O.3      39 RES39   0.0000
  5157 O2A     41.4930  29.1696  27.5881   O.co2    39 RES39   0.0000
  5158 C3      41.4930  25.5779  27.2746   C.2      39 RES39   0.0000
  5159 H3      41.4930  25.3336  28.1924   H        39 RES39   0.0000
  5160 O1A     42.5407  32.1674  30.0721   O.3      39 RES39   0.0000
  5161 O2A     41.4930  29.1696  34.6514   O.co2    39 RES39   0.0000
  5162 C3      41.4930  25.5779  34.9649   C.2      39 RES39   0.0000
  5163 H3      41.4930  25.3336  34.0471   H        39 RES39   0.0000
  5164 O1A     40.4453  32.1674  32.1674   O.3      39 RES39   0.0000
  5165 O2A     41.4930  33.0699  34.6514   O.co2    39 RES39   0.0000
  5166 C3      41.4930  36.6616  34.9649   C.2      39 RES39   0.0000
  5167 H3      41.4930  36.9059  34.0471   H        39 RES39   0.0000
  5168 O1A     42.5407  30.0721  32.1674   O.3      39 RES39   0.0000
  5169 O2A     43.4432  34.6514  31.1198   O.co2    39 RES39   0.0000
  5170 C3      47.0348  34.9649  31.1198   C.2      39 RES39   0.0000
  5171 H3      47.2792  34.0471  31.1198   H        39 RES39   0.0000
  5172 O2A     39.5428  34.6514  31.1198   O.co2    39 RES39   0.0000
  5173 C3      35.9512  34.9649  31.1198   C.2      39 RES39   0.0000
  5174 H3      35.7068  34.0471  31.1198   H        39 RES39   0.0000
  5175 O2A     39.5428  27.5881  31.1198   O.co2    39 RES39   0.0000
  5176 C3      35.9512  27.2746  31.1198   C.2      39 RES39   0.0000
  5177 H3      35.7068  28.1924  31.1198   H        39 RES39   0.0000
  5178 O2A     43.4432  27.5881  31.1198   O.co2    39 RES39   0.0000
  5179 C3      47.0348  27.2746  31.1198   C.2      39 RES39   0.0000
  5180 H3      47.2792  28.1924  31.1198   H        39 RES39   0.0000
  5181 O2A     45.0247  31.1198  29.1696   O.co2    39 RES39   0.0000
  5182 C2      45.7002  31.1198  26.9126   C.2      39 RES39   0.0000
  5183 C3      45.3382  31.1198  25.5779   C.2      39 RES39   0.0000
  5184 H3      44.4203  31.1198  25.3336   H        39 RES39   0.0000
  5185 C1      44.6421  31.1198  27.9706   C.2      39 RES39   0.0000
  5186 O2A     45.0247  31.1198  33.0699   O.co2    39 RES39   0.0000
  5187 C3      45.3382  31.1198  36.6616   C.2      39 RES39   0.0000
  5188 H3      44.4203  31.1198  36.9059   H        39 RES39   0.0000
  5189 O2A     37.9613  31.1198  33.0699   O.co2    39 RES39   0.0000
  5190 C3      37.6478  31.1198  36.6616   C.2      39 RES39   0.0000
  5191 H3      38.5657  31.1198  36.9059   H        39 RES39   0.0000
  5192 O2A     37.9613  31.1198  29.1696   O.co2    39 RES39   0.0000
  5193 C2      37.2858  31.1198  26.9126   C.2      39 RES39   0.0000
  5194 C3      37.6478  31.1198  25.5779   C.2      39 RES39   0.0000
  5195 H3      38.5657  31.1198  25.3336   H        39 RES39   0.0000
  5196 C1      38.3439  31.1198  27.9706   C.2      39 RES39   0.0000
  5197 O2A     39.5428  31.1198  27.5881   O.co2    39 RES39   0.0000
  5198 C3      35.9512  31.1198  27.2746   C.2      39 RES39   0.0000
  5199 H3      35.7068  31.1198  28.1924   H        39 RES39   0.0000
  5200 O2A     43.4432  31.1198  27.5881   O.co2    39 RES39   0.0000
  5201 C3      47.0348  31.1198  27.2746   C.2      39 RES39   0.0000
  5202 H3      47.2792  31.1198  28.1924   H        39 RES39   0.0000
  5203 C3      41.4930  24.5917  26.2883   C.2      39 RES39   0.0000
  5204 C3      41.4930  24.5917  35.9512   C.2      39 RES39   0.0000
  5205 C3      41.4930  37.6478  35.9512   C.2      39 RES39   0.0000
  5206 C3      41.4930  37.6478  26.2883   C.2      39 RES39   0.0000
  5207 C3      41.4930  26.2883  37.6478   C.2      39 RES39   0.0000
  5208 C3      41.4930  35.9512  37.6478   C.2      39 RES39   0.0000
  5209 C3      41.4930  35.9512  24.5917   C.2      39 RES39   0.0000
  5210 C3      41.4930  26.2883  24.5917   C.2      39 RES39   0.0000
  5211 C3      36.6616  31.1198  24.5917   C.2      39 RES39   0.0000
  5212 C3      46.3244  31.1198  24.5917   C.2      39 RES39   0.0000
  5213 C3      46.3244  31.1198  37.6478   C.2      39 RES39   0.0000
  5214 C3      36.6616  31.1198  37.6478   C.2      39 RES39   0.0000
  5215 C3      34.9649  31.1198  35.9512   C.2      39 RES39   0.0000
  5216 C3      34.9649  31.1198  26.2883   C.2      39 RES39   0.0000
  5217 C3      48.0211  31.1198  26.2883   C.2      39 RES39   0.0000
  5218 C3      48.0211  31.1198  35.9512   C.2      39 RES39   0.0000
  5219 C3      34.9649  26.2883  31.1198   C.2      39 RES39   0.0000
  5220 C3      34.9649  35.9512  31.1198   C.2      39 RES39   0.0000
  5221 C3      48.0211  35.9512  31.1198   C.2      39 RES39   0.0000
  5222 C3      48.0211  26.2883  31.1198   C.2      39 RES39   0.0000
  5223 C3      36.6616  24.5917  31.1198   C.2      39 RES39   0.0000
  5224 C3      46.3244  24.5917  31.1198   C.2      39 RES39   0.0000
  5225 C3      46.3244  37.6478  31.1198   C.2      39 RES39   0.0000
  5226 C3      36.6616  37.6478  31.1198   C.2      39 RES39   0.0000
  5227 Zr1     10.3733   0.0000  12.8576   Zr       40 RES40   0.0000
  5228 O2A     12.3234   0.0000  13.9049   O.co2    40 RES40   0.0000
  5229 C2      14.5804   0.0000  14.5804   C.2      40 RES40   0.0000
  5230 C3      15.9151   0.0000  14.2184   C.2      40 RES40   0.0000
  5231 H3      16.1594   0.0000  13.3006   H        40 RES40   0.0000
  5232 O1A      9.3256  -1.0477  11.4209   O.3      40 RES40   0.0000
  5233 C1      13.5224   0.0000  13.5224   C.2      40 RES40   0.0000
  5234 O2A      8.4231   0.0000  13.9049   O.co2    40 RES40   0.0000
  5235 C2       6.1661   0.0000  14.5804   C.2      40 RES40   0.0000
  5236 C3       4.8314   0.0000  14.2184   C.2      40 RES40   0.0000
  5237 H3       4.5871   0.0000  13.3006   H        40 RES40   0.0000
  5238 O1A     11.4209   1.0477  11.4209   O.3      40 RES40   0.0000
  5239 C1       7.2241   0.0000  13.5224   C.2      40 RES40   0.0000
  5240 Zr1     12.8576   0.0000  10.3733   Zr       40 RES40   0.0000
  5241 O2A     13.9049   1.9502  10.3733   O.co2    40 RES40   0.0000
  5242 C2      14.5804   4.2072  10.3733   C.2      40 RES40   0.0000
  5243 C3      14.2184   5.5418  10.3733   C.2      40 RES40   0.0000
  5244 H3      13.3006   5.7862  10.3733   H        40 RES40   0.0000
  5245 O1A     11.4209  -1.0477   9.3256   O.3      40 RES40   0.0000
  5246 C1      13.5224   3.1491  10.3733   C.2      40 RES40   0.0000
  5247 O2A     13.9049  -1.9502  10.3733   O.co2    40 RES40   0.0000
  5248 C2      14.5804  -4.2072  10.3733   C.2      40 RES40   0.0000
  5249 C3      14.2184  -5.5418  10.3733   C.2      40 RES40   0.0000
  5250 H3      13.3006  -5.7862  10.3733   H        40 RES40   0.0000
  5251 C1      13.5224  -3.1491  10.3733   C.2      40 RES40   0.0000
  5252 Zr1      7.8889   0.0000  10.3733   Zr       40 RES40   0.0000
  5253 O2A      6.8416  -1.9502  10.3733   O.co2    40 RES40   0.0000
  5254 C2       6.1661  -4.2072  10.3733   C.2      40 RES40   0.0000
  5255 C3       6.5281  -5.5418  10.3733   C.2      40 RES40   0.0000
  5256 H3       7.4459  -5.7862  10.3733   H        40 RES40   0.0000
  5257 O1A      9.3256   1.0477   9.3256   O.3      40 RES40   0.0000
  5258 C1       7.2241  -3.1491  10.3733   C.2      40 RES40   0.0000
  5259 O2A      6.8416   1.9502  10.3733   O.co2    40 RES40   0.0000
  5260 C2       6.1661   4.2072  10.3733   C.2      40 RES40   0.0000
  5261 C3       6.5281   5.5418  10.3733   C.2      40 RES40   0.0000
  5262 H3       7.4459   5.7862  10.3733   H        40 RES40   0.0000
  5263 C1       7.2241   3.1491  10.3733   C.2      40 RES40   0.0000
  5264 Zr1     10.3733   2.4844  10.3733   Zr       40 RES40   0.0000
  5265 O2A     10.3733   3.5317  12.3234   O.co2    40 RES40   0.0000
  5266 C2      10.3733   4.2072  14.5804   C.2      40 RES40   0.0000
  5267 C3      10.3733   3.8452  15.9151   C.2      40 RES40   0.0000
  5268 H3      10.3733   2.9273  16.1594   H        40 RES40   0.0000
  5269 C1      10.3733   3.1491  13.5224   C.2      40 RES40   0.0000
  5270 O2A     10.3733   3.5317   8.4231   O.co2    40 RES40   0.0000
  5271 C2      10.3733   4.2072   6.1661   C.2      40 RES40   0.0000
  5272 C3      10.3733   3.8452   4.8314   C.2      40 RES40   0.0000
  5273 H3      10.3733   2.9273   4.5871   H        40 RES40   0.0000
  5274 C1      10.3733   3.1491   7.2241   C.2      40 RES40   0.0000
  5275 Zr1     10.3733  -2.4844  10.3733   Zr       40 RES40   0.0000
  5276 O2A     10.3733  -3.5317   8.4231   O.co2    40 RES40   0.0000
  5277 C2      10.3733  -4.2072   6.1661   C.2      40 RES40   0.0000
  5278 C3      10.3733  -3.8452   4.8314   C.2      40 RES40   0.0000
  5279 H3      10.3733  -2.9273   4.5871   H        40 RES40   0.0000
  5280 C1      10.3733  -3.1491   7.2241   C.2      40 RES40   0.0000
  5281 O2A     10.3733  -3.5317  12.3234   O.co2    40 RES40   0.0000
  5282 C2      10.3733  -4.2072  14.5804   C.2      40 RES40   0.0000
  5283 C3      10.3733  -3.8452  15.9151   C.2      40 RES40   0.0000
  5284 H3      10.3733  -2.9273  16.1594   H        40 RES40   0.0000
  5285 C1      10.3733  -3.1491  13.5224   C.2      40 RES40   0.0000
  5286 Zr1     10.3733   0.0000   7.8889   Zr       40 RES40   0.0000
  5287 O2A     10.3733   1.9502   6.8416   O.co2    40 RES40   0.0000
  5288 C3      10.3733   5.5418   6.5281   C.2      40 RES40   0.0000
  5289 H3      10.3733   5.7862   7.4459   H        40 RES40   0.0000
  5290 O1A      9.3256  -1.0477   9.3256   O.3      40 RES40   0.0000
  5291 O2A     10.3733  -1.9502   6.8416   O.co2    40 RES40   0.0000
  5292 C3      10.3733  -5.5418   6.5281   C.2      40 RES40   0.0000
  5293 H3      10.3733  -5.7862   7.4459   H        40 RES40   0.0000
  5294 O1A     11.4209   1.0477   9.3256   O.3      40 RES40   0.0000
  5295 O2A     10.3733  -1.9502  13.9049   O.co2    40 RES40   0.0000
  5296 C3      10.3733  -5.5418  14.2184   C.2      40 RES40   0.0000
  5297 H3      10.3733  -5.7862  13.3006   H        40 RES40   0.0000
  5298 O1A      9.3256   1.0477  11.4209   O.3      40 RES40   0.0000
  5299 O2A     10.3733   1.9502  13.9049   O.co2    40 RES40   0.0000
  5300 C3      10.3733   5.5418  14.2184   C.2      40 RES40   0.0000
  5301 H3      10.3733   5.7862  13.3006   H        40 RES40   0.0000
  5302 O1A     11.4209  -1.0477  11.4209   O.3      40 RES40   0.0000
  5303 O2A     12.3234   3.5317  10.3733   O.co2    40 RES40   0.0000
  5304 C3      15.9151   3.8452  10.3733   C.2      40 RES40   0.0000
  5305 H3      16.1594   2.9273  10.3733   H        40 RES40   0.0000
  5306 O2A      8.4231   3.5317  10.3733   O.co2    40 RES40   0.0000
  5307 C3       4.8314   3.8452  10.3733   C.2      40 RES40   0.0000
  5308 H3       4.5871   2.9273  10.3733   H        40 RES40   0.0000
  5309 O2A      8.4231  -3.5317  10.3733   O.co2    40 RES40   0.0000
  5310 C3       4.8314  -3.8452  10.3733   C.2      40 RES40   0.0000
  5311 H3       4.5871  -2.9273  10.3733   H        40 RES40   0.0000
  5312 O2A     12.3234  -3.5317  10.3733   O.co2    40 RES40   0.0000
  5313 C3      15.9151  -3.8452  10.3733   C.2      40 RES40   0.0000
  5314 H3      16.1594  -2.9273  10.3733   H        40 RES40   0.0000
  5315 O2A     13.9049   0.0000   8.4231   O.co2    40 RES40   0.0000
  5316 C2      14.5804   0.0000   6.1661   C.2      40 RES40   0.0000
  5317 C3      14.2184   0.0000   4.8314   C.2      40 RES40   0.0000
  5318 H3      13.3006   0.0000   4.5871   H        40 RES40   0.0000
  5319 C1      13.5224   0.0000   7.2241   C.2      40 RES40   0.0000
  5320 O2A     13.9049   0.0000  12.3234   O.co2    40 RES40   0.0000
  5321 C3      14.2184   0.0000  15.9151   C.2      40 RES40   0.0000
  5322 H3      13.3006   0.0000  16.1594   H        40 RES40   0.0000
  5323 O2A      6.8416   0.0000  12.3234   O.co2    40 RES40   0.0000
  5324 C3       6.5281   0.0000  15.9151   C.2      40 RES40   0.0000
  5325 H3       7.4459   0.0000  16.1594   H        40 RES40   0.0000
  5326 O2A      6.8416   0.0000   8.4231   O.co2    40 RES40   0.0000
  5327 C2       6.1661   0.0000   6.1661   C.2      40 RES40   0.0000
  5328 C3       6.5281   0.0000   4.8314   C.2      40 RES40   0.0000
  5329 H3       7.4459   0.0000   4.5871   H        40 RES40   0.0000
  5330 C1       7.2241   0.0000   7.2241   C.2      40 RES40   0.0000
  5331 O2A      8.4231   0.0000   6.8416   O.co2    40 RES40   0.0000
  5332 C3       4.8314   0.0000   6.5281   C.2      40 RES40   0.0000
  5333 H3       4.5871   0.0000   7.4459   H        40 RES40   0.0000
  5334 O2A     12.3234   0.0000   6.8416   O.co2    40 RES40   0.0000
  5335 C3      15.9151   0.0000   6.5281   C.2      40 RES40   0.0000
  5336 H3      16.1594   0.0000   7.4459   H        40 RES40   0.0000
  5337 C3      10.3733  -6.5281   5.5418   C.2      40 RES40   0.0000
  5338 C3      10.3733  -6.5281  15.2047   C.2      40 RES40   0.0000
  5339 C3      10.3733   6.5281  15.2047   C.2      40 RES40   0.0000
  5340 C3      10.3733   6.5281   5.5418   C.2      40 RES40   0.0000
  5341 C3      10.3733  -4.8314  16.9013   C.2      40 RES40   0.0000
  5342 C3      10.3733   4.8314  16.9013   C.2      40 RES40   0.0000
  5343 C3      10.3733   4.8314   3.8452   C.2      40 RES40   0.0000
  5344 C3      10.3733  -4.8314   3.8452   C.2      40 RES40   0.0000
  5345 C3       5.5418   0.0000   3.8452   C.2      40 RES40   0.0000
  5346 C3      15.2047   0.0000   3.8452   C.2      40 RES40   0.0000
  5347 C3      15.2047   0.0000  16.9013   C.2      40 RES40   0.0000
  5348 C3       5.5418   0.0000  16.9013   C.2      40 RES40   0.0000
  5349 C3       3.8452   0.0000  15.2047   C.2      40 RES40   0.0000
  5350 C3       3.8452   0.0000   5.5418   C.2      40 RES40   0.0000
  5351 C3      16.9013   0.0000   5.5418   C.2      40 RES40   0.0000
  5352 C3      16.9013   0.0000  15.2047   C.2      40 RES40   0.0000
  5353 C3       3.8452  -4.8314  10.3733   C.2      40 RES40   0.0000
  5354 C3       3.8452   4.8314  10.3733   C.2      40 RES40   0.0000
  5355 C3      16.9013   4.8314  10.3733   C.2      40 RES40   0.0000
  5356 C3      16.9013  -4.8314  10.3733   C.2      40 RES40   0.0000
  5357 C3       5.5418  -6.5281  10.3733   C.2      40 RES40   0.0000
  5358 C3      15.2047  -6.5281  10.3733   C.2      40 RES40   0.0000
  5359 C3      15.2047   6.5281  10.3733   C.2      40 RES40   0.0000
  5360 C3       5.5418   6.5281  10.3733   C.2      40 RES40   0.0000
  5361 Zr1     10.3733   0.0000  33.6041   Zr       41 RES41   0.0000
  5362 O2A     12.3234   0.0000  34.6514   O.co2    41 RES41   0.0000
  5363 C2      14.5804   0.0000  35.3269   C.2      41 RES41   0.0000
  5364 C3      15.9151   0.0000  34.9649   C.2      41 RES41   0.0000
  5365 H3      16.1594   0.0000  34.0471   H        41 RES41   0.0000
  5366 O1A      9.3256  -1.0477  32.1674   O.3      41 RES41   0.0000
  5367 C1      13.5224   0.0000  34.2689   C.2      41 RES41   0.0000
  5368 O2A      8.4231   0.0000  34.6514   O.co2    41 RES41   0.0000
  5369 C2       6.1661   0.0000  35.3269   C.2      41 RES41   0.0000
  5370 C3       4.8314   0.0000  34.9649   C.2      41 RES41   0.0000
  5371 H3       4.5871   0.0000  34.0471   H        41 RES41   0.0000
  5372 O1A     11.4209   1.0477  32.1674   O.3      41 RES41   0.0000
  5373 C1       7.2241   0.0000  34.2689   C.2      41 RES41   0.0000
  5374 Zr1     12.8576   0.0000  31.1198   Zr       41 RES41   0.0000
  5375 O2A     13.9049   1.9502  31.1198   O.co2    41 RES41   0.0000
  5376 C2      14.5804   4.2072  31.1198   C.2      41 RES41   0.0000
  5377 C3      14.2184   5.5418  31.1198   C.2      41 RES41   0.0000
  5378 H3      13.3006   5.7862  31.1198   H        41 RES41   0.0000
  5379 O1A     11.4209  -1.0477  30.0721   O.3      41 RES41   0.0000
  5380 C1      13.5224   3.1491  31.1198   C.2      41 RES41   0.0000
  5381 O2A     13.9049  -1.9502  31.1198   O.co2    41 RES41   0.0000
  5382 C2      14.5804  -4.2072  31.1198   C.2      41 RES41   0.0000
  5383 C3      14.2184  -5.5418  31.1198   C.2      41 RES41   0.0000
  5384 H3      13.3006  -5.7862  31.1198   H        41 RES41   0.0000
  5385 C1      13.5224  -3.1491  31.1198   C.2      41 RES41   0.0000
  5386 Zr1      7.8889   0.0000  31.1198   Zr       41 RES41   0.0000
  5387 O2A      6.8416  -1.9502  31.1198   O.co2    41 RES41   0.0000
  5388 C2       6.1661  -4.2072  31.1198   C.2      41 RES41   0.0000
  5389 C3       6.5281  -5.5418  31.1198   C.2      41 RES41   0.0000
  5390 H3       7.4459  -5.7862  31.1198   H        41 RES41   0.0000
  5391 O1A      9.3256   1.0477  30.0721   O.3      41 RES41   0.0000
  5392 C1       7.2241  -3.1491  31.1198   C.2      41 RES41   0.0000
  5393 O2A      6.8416   1.9502  31.1198   O.co2    41 RES41   0.0000
  5394 C2       6.1661   4.2072  31.1198   C.2      41 RES41   0.0000
  5395 C3       6.5281   5.5418  31.1198   C.2      41 RES41   0.0000
  5396 H3       7.4459   5.7862  31.1198   H        41 RES41   0.0000
  5397 C1       7.2241   3.1491  31.1198   C.2      41 RES41   0.0000
  5398 Zr1     10.3733   2.4844  31.1198   Zr       41 RES41   0.0000
  5399 O2A     10.3733   3.5317  33.0699   O.co2    41 RES41   0.0000
  5400 C2      10.3733   4.2072  35.3269   C.2      41 RES41   0.0000
  5401 C3      10.3733   3.8452  36.6616   C.2      41 RES41   0.0000
  5402 H3      10.3733   2.9273  36.9059   H        41 RES41   0.0000
  5403 C1      10.3733   3.1491  34.2689   C.2      41 RES41   0.0000
  5404 O2A     10.3733   3.5317  29.1696   O.co2    41 RES41   0.0000
  5405 C2      10.3733   4.2072  26.9126   C.2      41 RES41   0.0000
  5406 C3      10.3733   3.8452  25.5779   C.2      41 RES41   0.0000
  5407 H3      10.3733   2.9273  25.3336   H        41 RES41   0.0000
  5408 C1      10.3733   3.1491  27.9706   C.2      41 RES41   0.0000
  5409 Zr1     10.3733  -2.4844  31.1198   Zr       41 RES41   0.0000
  5410 O2A     10.3733  -3.5317  29.1696   O.co2    41 RES41   0.0000
  5411 C2      10.3733  -4.2072  26.9126   C.2      41 RES41   0.0000
  5412 C3      10.3733  -3.8452  25.5779   C.2      41 RES41   0.0000
  5413 H3      10.3733  -2.9273  25.3336   H        41 RES41   0.0000
  5414 C1      10.3733  -3.1491  27.9706   C.2      41 RES41   0.0000
  5415 O2A     10.3733  -3.5317  33.0699   O.co2    41 RES41   0.0000
  5416 C2      10.3733  -4.2072  35.3269   C.2      41 RES41   0.0000
  5417 C3      10.3733  -3.8452  36.6616   C.2      41 RES41   0.0000
  5418 H3      10.3733  -2.9273  36.9059   H        41 RES41   0.0000
  5419 C1      10.3733  -3.1491  34.2689   C.2      41 RES41   0.0000
  5420 Zr1     10.3733   0.0000  28.6354   Zr       41 RES41   0.0000
  5421 O2A     10.3733   1.9502  27.5881   O.co2    41 RES41   0.0000
  5422 C3      10.3733   5.5418  27.2746   C.2      41 RES41   0.0000
  5423 H3      10.3733   5.7862  28.1924   H        41 RES41   0.0000
  5424 O1A      9.3256  -1.0477  30.0721   O.3      41 RES41   0.0000
  5425 O2A     10.3733  -1.9502  27.5881   O.co2    41 RES41   0.0000
  5426 C3      10.3733  -5.5418  27.2746   C.2      41 RES41   0.0000
  5427 H3      10.3733  -5.7862  28.1924   H        41 RES41   0.0000
  5428 O1A     11.4209   1.0477  30.0721   O.3      41 RES41   0.0000
  5429 O2A     10.3733  -1.9502  34.6514   O.co2    41 RES41   0.0000
  5430 C3      10.3733  -5.5418  34.9649   C.2      41 RES41   0.0000
  5431 H3      10.3733  -5.7862  34.0471   H        41 RES41   0.0000
  5432 O1A      9.3256   1.0477  32.1674   O.3      41 RES41   0.0000
  5433 O2A     10.3733   1.9502  34.6514   O.co2    41 RES41   0.0000
  5434 C3      10.3733   5.5418  34.9649   C.2      41 RES41   0.0000
  5435 H3      10.3733   5.7862  34.0471   H        41 RES41   0.0000
  5436 O1A     11.4209  -1.0477  32.1674   O.3      41 RES41   0.0000
  5437 O2A     12.3234   3.5317  31.1198   O.co2    41 RES41   0.0000
  5438 C3      15.9151   3.8452  31.1198   C.2      41 RES41   0.0000
  5439 H3      16.1594   2.9273  31.1198   H        41 RES41   0.0000
  5440 O2A      8.4231   3.5317  31.1198   O.co2    41 RES41   0.0000
  5441 C3       4.8314   3.8452  31.1198   C.2      41 RES41   0.0000
  5442 H3       4.5871   2.9273  31.1198   H        41 RES41   0.0000
  5443 O2A      8.4231  -3.5317  31.1198   O.co2    41 RES41   0.0000
  5444 C3       4.8314  -3.8452  31.1198   C.2      41 RES41   0.0000
  5445 H3       4.5871  -2.9273  31.1198   H        41 RES41   0.0000
  5446 O2A     12.3234  -3.5317  31.1198   O.co2    41 RES41   0.0000
  5447 C3      15.9151  -3.8452  31.1198   C.2      41 RES41   0.0000
  5448 H3      16.1594  -2.9273  31.1198   H        41 RES41   0.0000
  5449 O2A     13.9049   0.0000  29.1696   O.co2    41 RES41   0.0000
  5450 C2      14.5804   0.0000  26.9126   C.2      41 RES41   0.0000
  5451 C3      14.2184   0.0000  25.5779   C.2      41 RES41   0.0000
  5452 H3      13.3006   0.0000  25.3336   H        41 RES41   0.0000
  5453 C1      13.5224   0.0000  27.9706   C.2      41 RES41   0.0000
  5454 O2A     13.9049   0.0000  33.0699   O.co2    41 RES41   0.0000
  5455 C3      14.2184   0.0000  36.6616   C.2      41 RES41   0.0000
  5456 H3      13.3006   0.0000  36.9059   H        41 RES41   0.0000
  5457 O2A      6.8416   0.0000  33.0699   O.co2    41 RES41   0.0000
  5458 C3       6.5281   0.0000  36.6616   C.2      41 RES41   0.0000
  5459 H3       7.4459   0.0000  36.9059   H        41 RES41   0.0000
  5460 O2A      6.8416   0.0000  29.1696   O.co2    41 RES41   0.0000
  5461 C2       6.1661   0.0000  26.9126   C.2      41 RES41   0.0000
  5462 C3       6.5281   0.0000  25.5779   C.2      41 RES41   0.0000
  5463 H3       7.4459   0.0000  25.3336   H        41 RES41   0.0000
  5464 C1       7.2241   0.0000  27.9706   C.2      41 RES41   0.0000
  5465 O2A      8.4231   0.0000  27.5881   O.co2    41 RES41   0.0000
  5466 C3       4.8314   0.0000  27.2746   C.2      41 RES41   0.0000
  5467 H3       4.5871   0.0000  28.1924   H        41 RES41   0.0000
  5468 O2A     12.3234   0.0000  27.5881   O.co2    41 RES41   0.0000
  5469 C3      15.9151   0.0000  27.2746   C.2      41 RES41   0.0000
  5470 H3      16.1594   0.0000  28.1924   H        41 RES41   0.0000
  5471 C3      10.3733  -6.5281  26.2883   C.2      41 RES41   0.0000
  5472 C3      10.3733  -6.5281  35.9512   C.2      41 RES41   0.0000
  5473 C3      10.3733   6.5281  35.9512   C.2      41 RES41   0.0000
  5474 C3      10.3733   6.5281  26.2883   C.2      41 RES41   0.0000
  5475 C3      10.3733  -4.8314  37.6478   C.2      41 RES41   0.0000
  5476 C3      10.3733   4.8314  37.6478   C.2      41 RES41   0.0000
  5477 C3      10.3733   4.8314  24.5917   C.2      41 RES41   0.0000
  5478 C3      10.3733  -4.8314  24.5917   C.2      41 RES41   0.0000
  5479 C3       5.5418   0.0000  24.5917   C.2      41 RES41   0.0000
  5480 C3      15.2047   0.0000  24.5917   C.2      41 RES41   0.0000
  5481 C3      15.2047   0.0000  37.6478   C.2      41 RES41   0.0000
  5482 C3       5.5418   0.0000  37.6478   C.2      41 RES41   0.0000
  5483 C3       3.8452   0.0000  35.9512   C.2      41 RES41   0.0000
  5484 C3       3.8452   0.0000  26.2883   C.2      41 RES41   0.0000
  5485 C3      16.9013   0.0000  26.2883   C.2      41 RES41   0.0000
  5486 C3      16.9013   0.0000  35.9512   C.2      41 RES41   0.0000
  5487 C3       3.8452  -4.8314  31.1198   C.2      41 RES41   0.0000
  5488 C3       3.8452   4.8314  31.1198   C.2      41 RES41   0.0000
  5489 C3      16.9013   4.8314  31.1198   C.2      41 RES41   0.0000
  5490 C3      16.9013  -4.8314  31.1198   C.2      41 RES41   0.0000
  5491 C3       5.5418  -6.5281  31.1198   C.2      41 RES41   0.0000
  5492 C3      15.2047  -6.5281  31.1198   C.2      41 RES41   0.0000
  5493 C3      15.2047   6.5281  31.1198   C.2      41 RES41   0.0000
  5494 C3       5.5418   6.5281  31.1198   C.2      41 RES41   0.0000
  5495 Zr1     10.3733  20.7465  12.8576   Zr       42 RES42   0.0000
  5496 O2A     12.3234  20.7465  13.9049   O.co2    42 RES42   0.0000
  5497 C2      14.5804  20.7465  14.5804   C.2      42 RES42   0.0000
  5498 C3      15.9151  20.7465  14.2184   C.2      42 RES42   0.0000
  5499 H3      16.1594  20.7465  13.3006   H        42 RES42   0.0000
  5500 O1A      9.3256  19.6988  11.4209   O.3      42 RES42   0.0000
  5501 C1      13.5224  20.7465  13.5224   C.2      42 RES42   0.0000
  5502 O2A      8.4231  20.7465  13.9049   O.co2    42 RES42   0.0000
  5503 C2       6.1661  20.7465  14.5804   C.2      42 RES42   0.0000
  5504 C3       4.8314  20.7465  14.2184   C.2      42 RES42   0.0000
  5505 H3       4.5871  20.7465  13.3006   H        42 RES42   0.0000
  5506 O1A     11.4209  21.7942  11.4209   O.3      42 RES42   0.0000
  5507 C1       7.2241  20.7465  13.5224   C.2      42 RES42   0.0000
  5508 Zr1     12.8576  20.7465  10.3733   Zr       42 RES42   0.0000
  5509 O2A     13.9049  22.6967  10.3733   O.co2    42 RES42   0.0000
  5510 C2      14.5804  24.9537  10.3733   C.2      42 RES42   0.0000
  5511 C3      14.2184  26.2883  10.3733   C.2      42 RES42   0.0000
  5512 H3      13.3006  26.5327  10.3733   H        42 RES42   0.0000
  5513 O1A     11.4209  19.6988   9.3256   O.3      42 RES42   0.0000
  5514 C1      13.5224  23.8956  10.3733   C.2      42 RES42   0.0000
  5515 O2A     13.9049  18.7963  10.3733   O.co2    42 RES42   0.0000
  5516 C2      14.5804  16.5393  10.3733   C.2      42 RES42   0.0000
  5517 C3      14.2184  15.2047  10.3733   C.2      42 RES42   0.0000
  5518 H3      13.3006  14.9603  10.3733   H        42 RES42   0.0000
  5519 C1      13.5224  17.5974  10.3733   C.2      42 RES42   0.0000
  5520 Zr1      7.8889  20.7465  10.3733   Zr       42 RES42   0.0000
  5521 O2A      6.8416  18.7963  10.3733   O.co2    42 RES42   0.0000
  5522 C2       6.1661  16.5393  10.3733   C.2      42 RES42   0.0000
  5523 C3       6.5281  15.2047  10.3733   C.2      42 RES42   0.0000
  5524 H3       7.4459  14.9603  10.3733   H        42 RES42   0.0000
  5525 O1A      9.3256  21.7942   9.3256   O.3      42 RES42   0.0000
  5526 C1       7.2241  17.5974  10.3733   C.2      42 RES42   0.0000
  5527 O2A      6.8416  22.6967  10.3733   O.co2    42 RES42   0.0000
  5528 C2       6.1661  24.9537  10.3733   C.2      42 RES42   0.0000
  5529 C3       6.5281  26.2883  10.3733   C.2      42 RES42   0.0000
  5530 H3       7.4459  26.5327  10.3733   H        42 RES42   0.0000
  5531 C1       7.2241  23.8956  10.3733   C.2      42 RES42   0.0000
  5532 Zr1     10.3733  23.2309  10.3733   Zr       42 RES42   0.0000
  5533 O2A     10.3733  24.2782  12.3234   O.co2    42 RES42   0.0000
  5534 C2      10.3733  24.9537  14.5804   C.2      42 RES42   0.0000
  5535 C3      10.3733  24.5917  15.9151   C.2      42 RES42   0.0000
  5536 H3      10.3733  23.6738  16.1594   H        42 RES42   0.0000
  5537 C1      10.3733  23.8956  13.5224   C.2      42 RES42   0.0000
  5538 O2A     10.3733  24.2782   8.4231   O.co2    42 RES42   0.0000
  5539 C2      10.3733  24.9537   6.1661   C.2      42 RES42   0.0000
  5540 C3      10.3733  24.5917   4.8314   C.2      42 RES42   0.0000
  5541 H3      10.3733  23.6738   4.5871   H        42 RES42   0.0000
  5542 C1      10.3733  23.8956   7.2241   C.2      42 RES42   0.0000
  5543 Zr1     10.3733  18.2621  10.3733   Zr       42 RES42   0.0000
  5544 O2A     10.3733  17.2148   8.4231   O.co2    42 RES42   0.0000
  5545 C2      10.3733  16.5393   6.1661   C.2      42 RES42   0.0000
  5546 C3      10.3733  16.9013   4.8314   C.2      42 RES42   0.0000
  5547 H3      10.3733  17.8192   4.5871   H        42 RES42   0.0000
  5548 C1      10.3733  17.5974   7.2241   C.2      42 RES42   0.0000
  5549 O2A     10.3733  17.2148  12.3234   O.co2    42 RES42   0.0000
  5550 C2      10.3733  16.5393  14.5804   C.2      42 RES42   0.0000
  5551 C3      10.3733  16.9013  15.9151   C.2      42 RES42   0.0000
  5552 H3      10.3733  17.8192  16.1594   H        42 RES42   0.0000
  5553 C1      10.3733  17.5974  13.5224   C.2      42 RES42   0.0000
  5554 Zr1     10.3733  20.7465   7.8889   Zr       42 RES42   0.0000
  5555 O2A     10.3733  22.6967   6.8416   O.co2    42 RES42   0.0000
  5556 C3      10.3733  26.2883   6.5281   C.2      42 RES42   0.0000
  5557 H3      10.3733  26.5327   7.4459   H        42 RES42   0.0000
  5558 O1A      9.3256  19.6988   9.3256   O.3      42 RES42   0.0000
  5559 O2A     10.3733  18.7963   6.8416   O.co2    42 RES42   0.0000
  5560 C3      10.3733  15.2047   6.5281   C.2      42 RES42   0.0000
  5561 H3      10.3733  14.9603   7.4459   H        42 RES42   0.0000
  5562 O1A     11.4209  21.7942   9.3256   O.3      42 RES42   0.0000
  5563 O2A     10.3733  18.7963  13.9049   O.co2    42 RES42   0.0000
  5564 C3      10.3733  15.2047  14.2184   C.2      42 RES42   0.0000
  5565 H3      10.3733  14.9603  13.3006   H        42 RES42   0.0000
  5566 O1A      9.3256  21.7942  11.4209   O.3      42 RES42   0.0000
  5567 O2A     10.3733  22.6967  13.9049   O.co2    42 RES42   0.0000
  5568 C3      10.3733  26.2883  14.2184   C.2      42 RES42   0.0000
  5569 H3      10.3733  26.5327  13.3006   H        42 RES42   0.0000
  5570 O1A     11.4209  19.6988  11.4209   O.3      42 RES42   0.0000
  5571 O2A     12.3234  24.2782  10.3733   O.co2    42 RES42   0.0000
  5572 C3      15.9151  24.5917  10.3733   C.2      42 RES42   0.0000
  5573 H3      16.1594  23.6738  10.3733   H        42 RES42   0.0000
  5574 O2A      8.4231  24.2782  10.3733   O.co2    42 RES42   0.0000
  5575 C3       4.8314  24.5917  10.3733   C.2      42 RES42   0.0000
  5576 H3       4.5871  23.6738  10.3733   H        42 RES42   0.0000
  5577 O2A      8.4231  17.2148  10.3733   O.co2    42 RES42   0.0000
  5578 C3       4.8314  16.9013  10.3733   C.2      42 RES42   0.0000
  5579 H3       4.5871  17.8192  10.3733   H        42 RES42   0.0000
  5580 O2A     12.3234  17.2148  10.3733   O.co2    42 RES42   0.0000
  5581 C3      15.9151  16.9013  10.3733   C.2      42 RES42   0.0000
  5582 H3      16.1594  17.8192  10.3733   H        42 RES42   0.0000
  5583 O2A     13.9049  20.7465   8.4231   O.co2    42 RES42   0.0000
  5584 C2      14.5804  20.7465   6.1661   C.2      42 RES42   0.0000
  5585 C3      14.2184  20.7465   4.8314   C.2      42 RES42   0.0000
  5586 H3      13.3006  20.7465   4.5871   H        42 RES42   0.0000
  5587 C1      13.5224  20.7465   7.2241   C.2      42 RES42   0.0000
  5588 O2A     13.9049  20.7465  12.3234   O.co2    42 RES42   0.0000
  5589 C3      14.2184  20.7465  15.9151   C.2      42 RES42   0.0000
  5590 H3      13.3006  20.7465  16.1594   H        42 RES42   0.0000
  5591 O2A      6.8416  20.7465  12.3234   O.co2    42 RES42   0.0000
  5592 C3       6.5281  20.7465  15.9151   C.2      42 RES42   0.0000
  5593 H3       7.4459  20.7465  16.1594   H        42 RES42   0.0000
  5594 O2A      6.8416  20.7465   8.4231   O.co2    42 RES42   0.0000
  5595 C2       6.1661  20.7465   6.1661   C.2      42 RES42   0.0000
  5596 C3       6.5281  20.7465   4.8314   C.2      42 RES42   0.0000
  5597 H3       7.4459  20.7465   4.5871   H        42 RES42   0.0000
  5598 C1       7.2241  20.7465   7.2241   C.2      42 RES42   0.0000
  5599 O2A      8.4231  20.7465   6.8416   O.co2    42 RES42   0.0000
  5600 C3       4.8314  20.7465   6.5281   C.2      42 RES42   0.0000
  5601 H3       4.5871  20.7465   7.4459   H        42 RES42   0.0000
  5602 O2A     12.3234  20.7465   6.8416   O.co2    42 RES42   0.0000
  5603 C3      15.9151  20.7465   6.5281   C.2      42 RES42   0.0000
  5604 H3      16.1594  20.7465   7.4459   H        42 RES42   0.0000
  5605 C3      10.3733  14.2184   5.5418   C.2      42 RES42   0.0000
  5606 C3      10.3733  14.2184  15.2047   C.2      42 RES42   0.0000
  5607 C3      10.3733  27.2746  15.2047   C.2      42 RES42   0.0000
  5608 C3      10.3733  27.2746   5.5418   C.2      42 RES42   0.0000
  5609 C3      10.3733  15.9151  16.9013   C.2      42 RES42   0.0000
  5610 C3      10.3733  25.5779  16.9013   C.2      42 RES42   0.0000
  5611 C3      10.3733  25.5779   3.8452   C.2      42 RES42   0.0000
  5612 C3      10.3733  15.9151   3.8452   C.2      42 RES42   0.0000
  5613 C3       5.5418  20.7465   3.8452   C.2      42 RES42   0.0000
  5614 C3      15.2047  20.7465   3.8452   C.2      42 RES42   0.0000
  5615 C3      15.2047  20.7465  16.9013   C.2      42 RES42   0.0000
  5616 C3       5.5418  20.7465  16.9013   C.2      42 RES42   0.0000
  5617 C3       3.8452  20.7465  15.2047   C.2      42 RES42   0.0000
  5618 C3       3.8452  20.7465   5.5418   C.2      42 RES42   0.0000
  5619 C3      16.9013  20.7465   5.5418   C.2      42 RES42   0.0000
  5620 C3      16.9013  20.7465  15.2047   C.2      42 RES42   0.0000
  5621 C3       3.8452  15.9151  10.3733   C.2      42 RES42   0.0000
  5622 C3       3.8452  25.5779  10.3733   C.2      42 RES42   0.0000
  5623 C3      16.9013  25.5779  10.3733   C.2      42 RES42   0.0000
  5624 C3      16.9013  15.9151  10.3733   C.2      42 RES42   0.0000
  5625 C3       5.5418  14.2184  10.3733   C.2      42 RES42   0.0000
  5626 C3      15.2047  14.2184  10.3733   C.2      42 RES42   0.0000
  5627 C3      15.2047  27.2746  10.3733   C.2      42 RES42   0.0000
  5628 C3       5.5418  27.2746  10.3733   C.2      42 RES42   0.0000
  5629 Zr1     10.3733  20.7465  33.6041   Zr       43 RES43   0.0000
  5630 O2A     12.3234  20.7465  34.6514   O.co2    43 RES43   0.0000
  5631 C2      14.5804  20.7465  35.3269   C.2      43 RES43   0.0000
  5632 C3      15.9151  20.7465  34.9649   C.2      43 RES43   0.0000
  5633 H3      16.1594  20.7465  34.0471   H        43 RES43   0.0000
  5634 O1A      9.3256  19.6988  32.1674   O.3      43 RES43   0.0000
  5635 C1      13.5224  20.7465  34.2689   C.2      43 RES43   0.0000
  5636 O2A      8.4231  20.7465  34.6514   O.co2    43 RES43   0.0000
  5637 C2       6.1661  20.7465  35.3269   C.2      43 RES43   0.0000
  5638 C3       4.8314  20.7465  34.9649   C.2      43 RES43   0.0000
  5639 H3       4.5871  20.7465  34.0471   H        43 RES43   0.0000
  5640 O1A     11.4209  21.7942  32.1674   O.3      43 RES43   0.0000
  5641 C1       7.2241  20.7465  34.2689   C.2      43 RES43   0.0000
  5642 Zr1     12.8576  20.7465  31.1198   Zr       43 RES43   0.0000
  5643 O2A     13.9049  22.6967  31.1198   O.co2    43 RES43   0.0000
  5644 C2      14.5804  24.9537  31.1198   C.2      43 RES43   0.0000
  5645 C3      14.2184  26.2883  31.1198   C.2      43 RES43   0.0000
  5646 H3      13.3006  26.5327  31.1198   H        43 RES43   0.0000
  5647 O1A     11.4209  19.6988  30.0721   O.3      43 RES43   0.0000
  5648 C1      13.5224  23.8956  31.1198   C.2      43 RES43   0.0000
  5649 O2A     13.9049  18.7963  31.1198   O.co2    43 RES43   0.0000
  5650 C2      14.5804  16.5393  31.1198   C.2      43 RES43   0.0000
  5651 C3      14.2184  15.2047  31.1198   C.2      43 RES43   0.0000
  5652 H3      13.3006  14.9603  31.1198   H        43 RES43   0.0000
  5653 C1      13.5224  17.5974  31.1198   C.2      43 RES43   0.0000
  5654 Zr1      7.8889  20.7465  31.1198   Zr       43 RES43   0.0000
  5655 O2A      6.8416  18.7963  31.1198   O.co2    43 RES43   0.0000
  5656 C2       6.1661  16.5393  31.1198   C.2      43 RES43   0.0000
  5657 C3       6.5281  15.2047  31.1198   C.2      43 RES43   0.0000
  5658 H3       7.4459  14.9603  31.1198   H        43 RES43   0.0000
  5659 O1A      9.3256  21.7942  30.0721   O.3      43 RES43   0.0000
  5660 C1       7.2241  17.5974  31.1198   C.2      43 RES43   0.0000
  5661 O2A      6.8416  22.6967  31.1198   O.co2    43 RES43   0.0000
  5662 C2       6.1661  24.9537  31.1198   C.2      43 RES43   0.0000
  5663 C3       6.5281  26.2883  31.1198   C.2      43 RES43   0.0000
  5664 H3       7.4459  26.5327  31.1198   H        43 RES43   0.0000
  5665 C1       7.2241  23.8956  31.1198   C.2      43 RES43   0.0000
  5666 Zr1     10.3733  23.2309  31.1198   Zr       43 RES43   0.0000
  5667 O2A     10.3733  24.2782  33.0699   O.co2    43 RES43   0.0000
  5668 C2      10.3733  24.9537  35.3269   C.2      43 RES43   0.0000
  5669 C3      10.3733  24.5917  36.6616   C.2      43 RES43   0.0000
  5670 H3      10.3733  23.6738  36.9059   H        43 RES43   0.0000
  5671 C1      10.3733  23.8956  34.2689   C.2      43 RES43   0.0000
  5672 O2A     10.3733  24.2782  29.1696   O.co2    43 RES43   0.0000
  5673 C2      10.3733  24.9537  26.9126   C.2      43 RES43   0.0000
  5674 C3      10.3733  24.5917  25.5779   C.2      43 RES43   0.0000
  5675 H3      10.3733  23.6738  25.3336   H        43 RES43   0.0000
  5676 C1      10.3733  23.8956  27.9706   C.2      43 RES43   0.0000
  5677 Zr1     10.3733  18.2621  31.1198   Zr       43 RES43   0.0000
  5678 O2A     10.3733  17.2148  29.1696   O.co2    43 RES43   0.0000
  5679 C2      10.3733  16.5393  26.9126   C.2      43 RES43   0.0000
  5680 C3      10.3733  16.9013  25.5779   C.2      43 RES43   0.0000
  5681 H3      10.3733  17.8192  25.3336   H        43 RES43   0.0000
  5682 C1      10.3733  17.5974  27.9706   C.2      43 RES43   0.0000
  5683 O2A     10.3733  17.2148  33.0699   O.co2    43 RES43   0.0000
  5684 C2      10.3733  16.5393  35.3269   C.2      43 RES43   0.0000
  5685 C3      10.3733  16.9013  36.6616   C.2      43 RES43   0.0000
  5686 H3      10.3733  17.8192  36.9059   H        43 RES43   0.0000
  5687 C1      10.3733  17.5974  34.2689   C.2      43 RES43   0.0000
  5688 Zr1     10.3733  20.7465  28.6354   Zr       43 RES43   0.0000
  5689 O2A     10.3733  22.6967  27.5881   O.co2    43 RES43   0.0000
  5690 C3      10.3733  26.2883  27.2746   C.2      43 RES43   0.0000
  5691 H3      10.3733  26.5327  28.1924   H        43 RES43   0.0000
  5692 O1A      9.3256  19.6988  30.0721   O.3      43 RES43   0.0000
  5693 O2A     10.3733  18.7963  27.5881   O.co2    43 RES43   0.0000
  5694 C3      10.3733  15.2047  27.2746   C.2      43 RES43   0.0000
  5695 H3      10.3733  14.9603  28.1924   H        43 RES43   0.0000
  5696 O1A     11.4209  21.7942  30.0721   O.3      43 RES43   0.0000
  5697 O2A     10.3733  18.7963  34.6514   O.co2    43 RES43   0.0000
  5698 C3      10.3733  15.2047  34.9649   C.2      43 RES43   0.0000
  5699 H3      10.3733  14.9603  34.0471   H        43 RES43   0.0000
  5700 O1A      9.3256  21.7942  32.1674   O.3      43 RES43   0.0000
  5701 O2A     10.3733  22.6967  34.6514   O.co2    43 RES43   0.0000
  5702 C3      10.3733  26.2883  34.9649   C.2      43 RES43   0.0000
  5703 H3      10.3733  26.5327  34.0471   H        43 RES43   0.0000
  5704 O1A     11.4209  19.6988  32.1674   O.3      43 RES43   0.0000
  5705 O2A     12.3234  24.2782  31.1198   O.co2    43 RES43   0.0000
  5706 C3      15.9151  24.5917  31.1198   C.2      43 RES43   0.0000
  5707 H3      16.1594  23.6738  31.1198   H        43 RES43   0.0000
  5708 O2A      8.4231  24.2782  31.1198   O.co2    43 RES43   0.0000
  5709 C3       4.8314  24.5917  31.1198   C.2      43 RES43   0.0000
  5710 H3       4.5871  23.6738  31.1198   H        43 RES43   0.0000
  5711 O2A      8.4231  17.2148  31.1198   O.co2    43 RES43   0.0000
  5712 C3       4.8314  16.9013  31.1198   C.2      43 RES43   0.0000
  5713 H3       4.5871  17.8192  31.1198   H        43 RES43   0.0000
  5714 O2A     12.3234  17.2148  31.1198   O.co2    43 RES43   0.0000
  5715 C3      15.9151  16.9013  31.1198   C.2      43 RES43   0.0000
  5716 H3      16.1594  17.8192  31.1198   H        43 RES43   0.0000
  5717 O2A     13.9049  20.7465  29.1696   O.co2    43 RES43   0.0000
  5718 C2      14.5804  20.7465  26.9126   C.2      43 RES43   0.0000
  5719 C3      14.2184  20.7465  25.5779   C.2      43 RES43   0.0000
  5720 H3      13.3006  20.7465  25.3336   H        43 RES43   0.0000
  5721 C1      13.5224  20.7465  27.9706   C.2      43 RES43   0.0000
  5722 O2A     13.9049  20.7465  33.0699   O.co2    43 RES43   0.0000
  5723 C3      14.2184  20.7465  36.6616   C.2      43 RES43   0.0000
  5724 H3      13.3006  20.7465  36.9059   H        43 RES43   0.0000
  5725 O2A      6.8416  20.7465  33.0699   O.co2    43 RES43   0.0000
  5726 C3       6.5281  20.7465  36.6616   C.2      43 RES43   0.0000
  5727 H3       7.4459  20.7465  36.9059   H        43 RES43   0.0000
  5728 O2A      6.8416  20.7465  29.1696   O.co2    43 RES43   0.0000
  5729 C2       6.1661  20.7465  26.9126   C.2      43 RES43   0.0000
  5730 C3       6.5281  20.7465  25.5779   C.2      43 RES43   0.0000
  5731 H3       7.4459  20.7465  25.3336   H        43 RES43   0.0000
  5732 C1       7.2241  20.7465  27.9706   C.2      43 RES43   0.0000
  5733 O2A      8.4231  20.7465  27.5881   O.co2    43 RES43   0.0000
  5734 C3       4.8314  20.7465  27.2746   C.2      43 RES43   0.0000
  5735 H3       4.5871  20.7465  28.1924   H        43 RES43   0.0000
  5736 O2A     12.3234  20.7465  27.5881   O.co2    43 RES43   0.0000
  5737 C3      15.9151  20.7465  27.2746   C.2      43 RES43   0.0000
  5738 H3      16.1594  20.7465  28.1924   H        43 RES43   0.0000
  5739 C3      10.3733  14.2184  26.2883   C.2      43 RES43   0.0000
  5740 C3      10.3733  14.2184  35.9512   C.2      43 RES43   0.0000
  5741 C3      10.3733  27.2746  35.9512   C.2      43 RES43   0.0000
  5742 C3      10.3733  27.2746  26.2883   C.2      43 RES43   0.0000
  5743 C3      10.3733  15.9151  37.6478   C.2      43 RES43   0.0000
  5744 C3      10.3733  25.5779  37.6478   C.2      43 RES43   0.0000
  5745 C3      10.3733  25.5779  24.5917   C.2      43 RES43   0.0000
  5746 C3      10.3733  15.9151  24.5917   C.2      43 RES43   0.0000
  5747 C3       5.5418  20.7465  24.5917   C.2      43 RES43   0.0000
  5748 C3      15.2047  20.7465  24.5917   C.2      43 RES43   0.0000
  5749 C3      15.2047  20.7465  37.6478   C.2      43 RES43   0.0000
  5750 C3       5.5418  20.7465  37.6478   C.2      43 RES43   0.0000
  5751 C3       3.8452  20.7465  35.9512   C.2      43 RES43   0.0000
  5752 C3       3.8452  20.7465  26.2883   C.2      43 RES43   0.0000
  5753 C3      16.9013  20.7465  26.2883   C.2      43 RES43   0.0000
  5754 C3      16.9013  20.7465  35.9512   C.2      43 RES43   0.0000
  5755 C3       3.8452  15.9151  31.1198   C.2      43 RES43   0.0000
  5756 C3       3.8452  25.5779  31.1198   C.2      43 RES43   0.0000
  5757 C3      16.9013  25.5779  31.1198   C.2      43 RES43   0.0000
  5758 C3      16.9013  15.9151  31.1198   C.2      43 RES43   0.0000
  5759 C3       5.5418  14.2184  31.1198   C.2      43 RES43   0.0000
  5760 C3      15.2047  14.2184  31.1198   C.2      43 RES43   0.0000
  5761 C3      15.2047  27.2746  31.1198   C.2      43 RES43   0.0000
  5762 C3       5.5418  27.2746  31.1198   C.2      43 RES43   0.0000
  5763 Zr1     10.3733  41.4930  12.8576   Zr       44 RES44   0.0000
  5764 O2A     12.3234  41.4930  13.9049   O.co2    44 RES44   0.0000
  5765 C2      14.5804  41.4930  14.5804   C.2      44 RES44   0.0000
  5766 C3      15.9151  41.4930  14.2184   C.2      44 RES44   0.0000
  5767 H3      16.1594  41.4930  13.3006   H        44 RES44   0.0000
  5768 O1A      9.3256  40.4453  11.4209   O.3      44 RES44   0.0000
  5769 C1      13.5224  41.4930  13.5224   C.2      44 RES44   0.0000
  5770 O2A      8.4231  41.4930  13.9049   O.co2    44 RES44   0.0000
  5771 C2       6.1661  41.4930  14.5804   C.2      44 RES44   0.0000
  5772 C3       4.8314  41.4930  14.2184   C.2      44 RES44   0.0000
  5773 H3       4.5871  41.4930  13.3006   H        44 RES44   0.0000
  5774 O1A     11.4209  42.5407  11.4209   O.3      44 RES44   0.0000
  5775 C1       7.2241  41.4930  13.5224   C.2      44 RES44   0.0000
  5776 Zr1     12.8576  41.4930  10.3733   Zr       44 RES44   0.0000
  5777 O2A     13.9049  43.4432  10.3733   O.co2    44 RES44   0.0000
  5778 C2      14.5804  45.7002  10.3733   C.2      44 RES44   0.0000
  5779 C3      14.2184  47.0348  10.3733   C.2      44 RES44   0.0000
  5780 H3      13.3006  47.2792  10.3733   H        44 RES44   0.0000
  5781 O1A     11.4209  40.4453   9.3256   O.3      44 RES44   0.0000
  5782 C1      13.5224  44.6421  10.3733   C.2      44 RES44   0.0000
  5783 O2A     13.9049  39.5428  10.3733   O.co2    44 RES44   0.0000
  5784 C2      14.5804  37.2858  10.3733   C.2      44 RES44   0.0000
  5785 C3      14.2184  35.9512  10.3733   C.2      44 RES44   0.0000
  5786 H3      13.3006  35.7068  10.3733   H        44 RES44   0.0000
  5787 C1      13.5224  38.3439  10.3733   C.2      44 RES44   0.0000
  5788 Zr1      7.8889  41.4930  10.3733   Zr       44 RES44   0.0000
  5789 O2A      6.8416  39.5428  10.3733   O.co2    44 RES44   0.0000
  5790 C2       6.1661  37.2858  10.3733   C.2      44 RES44   0.0000
  5791 C3       6.5281  35.9512  10.3733   C.2      44 RES44   0.0000
  5792 H3       7.4459  35.7068  10.3733   H        44 RES44   0.0000
  5793 O1A      9.3256  42.5407   9.3256   O.3      44 RES44   0.0000
  5794 C1       7.2241  38.3439  10.3733   C.2      44 RES44   0.0000
  5795 O2A      6.8416  43.4432  10.3733   O.co2    44 RES44   0.0000
  5796 C2       6.1661  45.7002  10.3733   C.2      44 RES44   0.0000
  5797 C3       6.5281  47.0348  10.3733   C.2      44 RES44   0.0000
  5798 H3       7.4459  47.2792  10.3733   H        44 RES44   0.0000
  5799 C1       7.2241  44.6421  10.3733   C.2      44 RES44   0.0000
  5800 Zr1     10.3733  43.9774  10.3733   Zr       44 RES44   0.0000
  5801 O2A     10.3733  45.0247  12.3234   O.co2    44 RES44   0.0000
  5802 C2      10.3733  45.7002  14.5804   C.2      44 RES44   0.0000
  5803 C3      10.3733  45.3382  15.9151   C.2      44 RES44   0.0000
  5804 H3      10.3733  44.4203  16.1594   H        44 RES44   0.0000
  5805 C1      10.3733  44.6421  13.5224   C.2      44 RES44   0.0000
  5806 O2A     10.3733  45.0247   8.4231   O.co2    44 RES44   0.0000
  5807 C2      10.3733  45.7002   6.1661   C.2      44 RES44   0.0000
  5808 C3      10.3733  45.3382   4.8314   C.2      44 RES44   0.0000
  5809 H3      10.3733  44.4203   4.5871   H        44 RES44   0.0000
  5810 C1      10.3733  44.6421   7.2241   C.2      44 RES44   0.0000
  5811 Zr1     10.3733  39.0086  10.3733   Zr       44 RES44   0.0000
  5812 O2A     10.3733  37.9613   8.4231   O.co2    44 RES44   0.0000
  5813 C2      10.3733  37.2858   6.1661   C.2      44 RES44   0.0000
  5814 C3      10.3733  37.6478   4.8314   C.2      44 RES44   0.0000
  5815 H3      10.3733  38.5657   4.5871   H        44 RES44   0.0000
  5816 C1      10.3733  38.3439   7.2241   C.2      44 RES44   0.0000
  5817 O2A     10.3733  37.9613  12.3234   O.co2    44 RES44   0.0000
  5818 C2      10.3733  37.2858  14.5804   C.2      44 RES44   0.0000
  5819 C3      10.3733  37.6478  15.9151   C.2      44 RES44   0.0000
  5820 H3      10.3733  38.5657  16.1594   H        44 RES44   0.0000
  5821 C1      10.3733  38.3439  13.5224   C.2      44 RES44   0.0000
  5822 Zr1     10.3733  41.4930   7.8889   Zr       44 RES44   0.0000
  5823 O2A     10.3733  43.4432   6.8416   O.co2    44 RES44   0.0000
  5824 C3      10.3733  47.0348   6.5281   C.2      44 RES44   0.0000
  5825 H3      10.3733  47.2792   7.4459   H        44 RES44   0.0000
  5826 O1A      9.3256  40.4453   9.3256   O.3      44 RES44   0.0000
  5827 O2A     10.3733  39.5428   6.8416   O.co2    44 RES44   0.0000
  5828 C3      10.3733  35.9512   6.5281   C.2      44 RES44   0.0000
  5829 H3      10.3733  35.7068   7.4459   H        44 RES44   0.0000
  5830 O1A     11.4209  42.5407   9.3256   O.3      44 RES44   0.0000
  5831 O2A     10.3733  39.5428  13.9049   O.co2    44 RES44   0.0000
  5832 C3      10.3733  35.9512  14.2184   C.2      44 RES44   0.0000
  5833 H3      10.3733  35.7068  13.3006   H        44 RES44   0.0000
  5834 O1A      9.3256  42.5407  11.4209   O.3      44 RES44   0.0000
  5835 O2A     10.3733  43.4432  13.9049   O.co2    44 RES44   0.0000
  5836 C3      10.3733  47.0348  14.2184   C.2      44 RES44   0.0000
  5837 H3      10.3733  47.2792  13.3006   H        44 RES44   0.0000
  5838 O1A     11.4209  40.4453  11.4209   O.3      44 RES44   0.0000
  5839 O2A     12.3234  45.0247  10.3733   O.co2    44 RES44   0.0000
  5840 C3      15.9151  45.3382  10.3733   C.2      44 RES44   0.0000
  5841 H3      16.1594  44.4203  10.3733   H        44 RES44   0.0000
  5842 O2A      8.4231  45.0247  10.3733   O.co2    44 RES44   0.0000
  5843 C3       4.8314  45.3382  10.3733   C.2      44 RES44   0.0000
  5844 H3       4.5871  44.4203  10.3733   H        44 RES44   0.0000
  5845 O2A      8.4231  37.9613  10.3733   O.co2    44 RES44   0.0000
  5846 C3       4.8314  37.6478  10.3733   C.2      44 RES44   0.0000
  5847 H3       4.5871  38.5657  10.3733   H        44 RES44   0.0000
  5848 O2A     12.3234  37.9613  10.3733   O.co2    44 RES44   0.0000
  5849 C3      15.9151  37.6478  10.3733   C.2      44 RES44   0.0000
  5850 H3      16.1594  38.5657  10.3733   H        44 RES44   0.0000
  5851 O2A     13.9049  41.4930   8.4231   O.co2    44 RES44   0.0000
  5852 C2      14.5804  41.4930   6.1661   C.2      44 RES44   0.0000
  5853 C3      14.2184  41.4930   4.8314   C.2      44 RES44   0.0000
  5854 H3      13.3006  41.4930   4.5871   H        44 RES44   0.0000
  5855 C1      13.5224  41.4930   7.2241   C.2      44 RES44   0.0000
  5856 O2A     13.9049  41.4930  12.3234   O.co2    44 RES44   0.0000
  5857 C3      14.2184  41.4930  15.9151   C.2      44 RES44   0.0000
  5858 H3      13.3006  41.4930  16.1594   H        44 RES44   0.0000
  5859 O2A      6.8416  41.4930  12.3234   O.co2    44 RES44   0.0000
  5860 C3       6.5281  41.4930  15.9151   C.2      44 RES44   0.0000
  5861 H3       7.4459  41.4930  16.1594   H        44 RES44   0.0000
  5862 O2A      6.8416  41.4930   8.4231   O.co2    44 RES44   0.0000
  5863 C2       6.1661  41.4930   6.1661   C.2      44 RES44   0.0000
  5864 C3       6.5281  41.4930   4.8314   C.2      44 RES44   0.0000
  5865 H3       7.4459  41.4930   4.5871   H        44 RES44   0.0000
  5866 C1       7.2241  41.4930   7.2241   C.2      44 RES44   0.0000
  5867 O2A      8.4231  41.4930   6.8416   O.co2    44 RES44   0.0000
  5868 C3       4.8314  41.4930   6.5281   C.2      44 RES44   0.0000
  5869 H3       4.5871  41.4930   7.4459   H        44 RES44   0.0000
  5870 O2A     12.3234  41.4930   6.8416   O.co2    44 RES44   0.0000
  5871 C3      15.9151  41.4930   6.5281   C.2      44 RES44   0.0000
  5872 H3      16.1594  41.4930   7.4459   H        44 RES44   0.0000
  5873 C3      10.3733  34.9649   5.5418   C.2      44 RES44   0.0000
  5874 C3      10.3733  34.9649  15.2047   C.2      44 RES44   0.0000
  5875 C3      10.3733  48.0211  15.2047   C.2      44 RES44   0.0000
  5876 C3      10.3733  48.0211   5.5418   C.2      44 RES44   0.0000
  5877 C3      10.3733  36.6616  16.9013   C.2      44 RES44   0.0000
  5878 C3      10.3733  46.3244  16.9013   C.2      44 RES44   0.0000
  5879 C3      10.3733  46.3244   3.8452   C.2      44 RES44   0.0000
  5880 C3      10.3733  36.6616   3.8452   C.2      44 RES44   0.0000
  5881 C3       5.5418  41.4930   3.8452   C.2      44 RES44   0.0000
  5882 C3      15.2047  41.4930   3.8452   C.2      44 RES44   0.0000
  5883 C3      15.2047  41.4930  16.9013   C.2      44 RES44   0.0000
  5884 C3       5.5418  41.4930  16.9013   C.2      44 RES44   0.0000
  5885 C3       3.8452  41.4930  15.2047   C.2      44 RES44   0.0000
  5886 C3       3.8452  41.4930   5.5418   C.2      44 RES44   0.0000
  5887 C3      16.9013  41.4930   5.5418   C.2      44 RES44   0.0000
  5888 C3      16.9013  41.4930  15.2047   C.2      44 RES44   0.0000
  5889 C3       3.8452  36.6616  10.3733   C.2      44 RES44   0.0000
  5890 C3       3.8452  46.3244  10.3733   C.2      44 RES44   0.0000
  5891 C3      16.9013  46.3244  10.3733   C.2      44 RES44   0.0000
  5892 C3      16.9013  36.6616  10.3733   C.2      44 RES44   0.0000
  5893 C3       5.5418  34.9649  10.3733   C.2      44 RES44   0.0000
  5894 C3      15.2047  34.9649  10.3733   C.2      44 RES44   0.0000
  5895 C3      15.2047  48.0211  10.3733   C.2      44 RES44   0.0000
  5896 C3       5.5418  48.0211  10.3733   C.2      44 RES44   0.0000
  5897 Zr1     10.3733  41.4930  33.6041   Zr       45 RES45   0.0000
  5898 O2A     12.3234  41.4930  34.6514   O.co2    45 RES45   0.0000
  5899 C2      14.5804  41.4930  35.3269   C.2      45 RES45   0.0000
  5900 C3      15.9151  41.4930  34.9649   C.2      45 RES45   0.0000
  5901 H3      16.1594  41.4930  34.0471   H        45 RES45   0.0000
  5902 O1A      9.3256  40.4453  32.1674   O.3      45 RES45   0.0000
  5903 C1      13.5224  41.4930  34.2689   C.2      45 RES45   0.0000
  5904 O2A      8.4231  41.4930  34.6514   O.co2    45 RES45   0.0000
  5905 C2       6.1661  41.4930  35.3269   C.2      45 RES45   0.0000
  5906 C3       4.8314  41.4930  34.9649   C.2      45 RES45   0.0000
  5907 H3       4.5871  41.4930  34.0471   H        45 RES45   0.0000
  5908 O1A     11.4209  42.5407  32.1674   O.3      45 RES45   0.0000
  5909 C1       7.2241  41.4930  34.2689   C.2      45 RES45   0.0000
  5910 Zr1     12.8576  41.4930  31.1198   Zr       45 RES45   0.0000
  5911 O2A     13.9049  43.4432  31.1198   O.co2    45 RES45   0.0000
  5912 C2      14.5804  45.7002  31.1198   C.2      45 RES45   0.0000
  5913 C3      14.2184  47.0348  31.1198   C.2      45 RES45   0.0000
  5914 H3      13.3006  47.2792  31.1198   H        45 RES45   0.0000
  5915 O1A     11.4209  40.4453  30.0721   O.3      45 RES45   0.0000
  5916 C1      13.5224  44.6421  31.1198   C.2      45 RES45   0.0000
  5917 O2A     13.9049  39.5428  31.1198   O.co2    45 RES45   0.0000
  5918 C2      14.5804  37.2858  31.1198   C.2      45 RES45   0.0000
  5919 C3      14.2184  35.9512  31.1198   C.2      45 RES45   0.0000
  5920 H3      13.3006  35.7068  31.1198   H        45 RES45   0.0000
  5921 C1      13.5224  38.3439  31.1198   C.2      45 RES45   0.0000
  5922 Zr1      7.8889  41.4930  31.1198   Zr       45 RES45   0.0000
  5923 O2A      6.8416  39.5428  31.1198   O.co2    45 RES45   0.0000
  5924 C2       6.1661  37.2858  31.1198   C.2      45 RES45   0.0000
  5925 C3       6.5281  35.9512  31.1198   C.2      45 RES45   0.0000
  5926 H3       7.4459  35.7068  31.1198   H        45 RES45   0.0000
  5927 O1A      9.3256  42.5407  30.0721   O.3      45 RES45   0.0000
  5928 C1       7.2241  38.3439  31.1198   C.2      45 RES45   0.0000
  5929 O2A      6.8416  43.4432  31.1198   O.co2    45 RES45   0.0000
  5930 C2       6.1661  45.7002  31.1198   C.2      45 RES45   0.0000
  5931 C3       6.5281  47.0348  31.1198   C.2      45 RES45   0.0000
  5932 H3       7.4459  47.2792  31.1198   H        45 RES45   0.0000
  5933 C1       7.2241  44.6421  31.1198   C.2      45 RES45   0.0000
  5934 Zr1     10.3733  43.9774  31.1198   Zr       45 RES45   0.0000
  5935 O2A     10.3733  45.0247  33.0699   O.co2    45 RES45   0.0000
  5936 C2      10.3733  45.7002  35.3269   C.2      45 RES45   0.0000
  5937 C3      10.3733  45.3382  36.6616   C.2      45 RES45   0.0000
  5938 H3      10.3733  44.4203  36.9059   H        45 RES45   0.0000
  5939 C1      10.3733  44.6421  34.2689   C.2      45 RES45   0.0000
  5940 O2A     10.3733  45.0247  29.1696   O.co2    45 RES45   0.0000
  5941 C2      10.3733  45.7002  26.9126   C.2      45 RES45   0.0000
  5942 C3      10.3733  45.3382  25.5779   C.2      45 RES45   0.0000
  5943 H3      10.3733  44.4203  25.3336   H        45 RES45   0.0000
  5944 C1      10.3733  44.6421  27.9706   C.2      45 RES45   0.0000
  5945 Zr1     10.3733  39.0086  31.1198   Zr       45 RES45   0.0000
  5946 O2A     10.3733  37.9613  29.1696   O.co2    45 RES45   0.0000
  5947 C2      10.3733  37.2858  26.9126   C.2      45 RES45   0.0000
  5948 C3      10.3733  37.6478  25.5779   C.2      45 RES45   0.0000
  5949 H3      10.3733  38.5657  25.3336   H        45 RES45   0.0000
  5950 C1      10.3733  38.3439  27.9706   C.2      45 RES45   0.0000
  5951 O2A     10.3733  37.9613  33.0699   O.co2    45 RES45   0.0000
  5952 C2      10.3733  37.2858  35.3269   C.2      45 RES45   0.0000
  5953 C3      10.3733  37.6478  36.6616   C.2      45 RES45   0.0000
  5954 H3      10.3733  38.5657  36.9059   H        45 RES45   0.0000
  5955 C1      10.3733  38.3439  34.2689   C.2      45 RES45   0.0000
  5956 Zr1     10.3733  41.4930  28.6354   Zr       45 RES45   0.0000
  5957 O2A     10.3733  43.4432  27.5881   O.co2    45 RES45   0.0000
  5958 C3      10.3733  47.0348  27.2746   C.2      45 RES45   0.0000
  5959 H3      10.3733  47.2792  28.1924   H        45 RES45   0.0000
  5960 O1A      9.3256  40.4453  30.0721   O.3      45 RES45   0.0000
  5961 O2A     10.3733  39.5428  27.5881   O.co2    45 RES45   0.0000
  5962 C3      10.3733  35.9512  27.2746   C.2      45 RES45   0.0000
  5963 H3      10.3733  35.7068  28.1924   H        45 RES45   0.0000
  5964 O1A     11.4209  42.5407  30.0721   O.3      45 RES45   0.0000
  5965 O2A     10.3733  39.5428  34.6514   O.co2    45 RES45   0.0000
  5966 C3      10.3733  35.9512  34.9649   C.2      45 RES45   0.0000
  5967 H3      10.3733  35.7068  34.0471   H        45 RES45   0.0000
  5968 O1A      9.3256  42.5407  32.1674   O.3      45 RES45   0.0000
  5969 O2A     10.3733  43.4432  34.6514   O.co2    45 RES45   0.0000
  5970 C3      10.3733  47.0348  34.9649   C.2      45 RES45   0.0000
  5971 H3      10.3733  47.2792  34.0471   H        45 RES45   0.0000
  5972 O1A     11.4209  40.4453  32.1674   O.3      45 RES45   0.0000
  5973 O2A     12.3234  45.0247  31.1198   O.co2    45 RES45   0.0000
  5974 C3      15.9151  45.3382  31.1198   C.2      45 RES45   0.0000
  5975 H3      16.1594  44.4203  31.1198   H        45 RES45   0.0000
  5976 O2A      8.4231  45.0247  31.1198   O.co2    45 RES45   0.0000
  5977 C3       4.8314  45.3382  31.1198   C.2      45 RES45   0.0000
  5978 H3       4.5871  44.4203  31.1198   H        45 RES45   0.0000
  5979 O2A      8.4231  37.9613  31.1198   O.co2    45 RES45   0.0000
  5980 C3       4.8314  37.6478  31.1198   C.2      45 RES45   0.0000
  5981 H3       4.5871  38.5657  31.1198   H        45 RES45   0.0000
  5982 O2A     12.3234  37.9613  31.1198   O.co2    45 RES45   0.0000
  5983 C3      15.9151  37.6478  31.1198   C.2      45 RES45   0.0000
  5984 H3      16.1594  38.5657  31.1198   H        45 RES45   0.0000
  5985 O2A     13.9049  41.4930  29.1696   O.co2    45 RES45   0.0000
  5986 C2      14.5804  41.4930  26.9126   C.2      45 RES45   0.0000
  5987 C3      14.2184  41.4930  25.5779   C.2      45 RES45   0.0000
  5988 H3      13.3006  41.4930  25.3336   H        45 RES45   0.0000
  5989 C1      13.5224  41.4930  27.9706   C.2      45 RES45   0.0000
  5990 O2A     13.9049  41.4930  33.0699   O.co2    45 RES45   0.0000
  5991 C3      14.2184  41.4930  36.6616   C.2      45 RES45   0.0000
  5992 H3      13.3006  41.4930  36.9059   H        45 RES45   0.0000
  5993 O2A      6.8416  41.4930  33.0699   O.co2    45 RES45   0.0000
  5994 C3       6.5281  41.4930  36.6616   C.2      45 RES45   0.0000
  5995 H3       7.4459  41.4930  36.9059   H        45 RES45   0.0000
  5996 O2A      6.8416  41.4930  29.1696   O.co2    45 RES45   0.0000
  5997 C2       6.1661  41.4930  26.9126   C.2      45 RES45   0.0000
  5998 C3       6.5281  41.4930  25.5779   C.2      45 RES45   0.0000
  5999 H3       7.4459  41.4930  25.3336   H        45 RES45   0.0000
  6000 C1       7.2241  41.4930  27.9706   C.2      45 RES45   0.0000
  6001 O2A      8.4231  41.4930  27.5881   O.co2    45 RES45   0.0000
  6002 C3       4.8314  41.4930  27.2746   C.2      45 RES45   0.0000
  6003 H3       4.5871  41.4930  28.1924   H        45 RES45   0.0000
  6004 O2A     12.3234  41.4930  27.5881   O.co2    45 RES45   0.0000
  6005 C3      15.9151  41.4930  27.2746   C.2      45 RES45   0.0000
  6006 H3      16.1594  41.4930  28.1924   H        45 RES45   0.0000
  6007 C3      10.3733  34.9649  26.2883   C.2      45 RES45   0.0000
  6008 C3      10.3733  34.9649  35.9512   C.2      45 RES45   0.0000
  6009 C3      10.3733  48.0211  35.9512   C.2      45 RES45   0.0000
  6010 C3      10.3733  48.0211  26.2883   C.2      45 RES45   0.0000
  6011 C3      10.3733  36.6616  37.6478   C.2      45 RES45   0.0000
  6012 C3      10.3733  46.3244  37.6478   C.2      45 RES45   0.0000
  6013 C3      10.3733  46.3244  24.5917   C.2      45 RES45   0.0000
  6014 C3      10.3733  36.6616  24.5917   C.2      45 RES45   0.0000
  6015 C3       5.5418  41.4930  24.5917   C.2      45 RES45   0.0000
  6016 C3      15.2047  41.4930  24.5917   C.2      45 RES45   0.0000
  6017 C3      15.2047  41.4930  37.6478   C.2      45 RES45   0.0000
  6018 C3       5.5418  41.4930  37.6478   C.2      45 RES45   0.0000
  6019 C3       3.8452  41.4930  35.9512   C.2      45 RES45   0.0000
  6020 C3       3.8452  41.4930  26.2883   C.2      45 RES45   0.0000
  6021 C3      16.9013  41.4930  26.2883   C.2      45 RES45   0.0000
  6022 C3      16.9013  41.4930  35.9512   C.2      45 RES45   0.0000
  6023 C3       3.8452  36.6616  31.1198   C.2      45 RES45   0.0000
  6024 C3       3.8452  46.3244  31.1198   C.2      45 RES45   0.0000
  6025 C3      16.9013  46.3244  31.1198   C.2      45 RES45   0.0000
  6026 C3      16.9013  36.6616  31.1198   C.2      45 RES45   0.0000
  6027 C3       5.5418  34.9649  31.1198   C.2      45 RES45   0.0000
  6028 C3      15.2047  34.9649  31.1198   C.2      45 RES45   0.0000
  6029 C3      15.2047  48.0211  31.1198   C.2      45 RES45   0.0000
  6030 C3       5.5418  48.0211  31.1198   C.2      45 RES45   0.0000
  6031 Zr1     31.1198   0.0000  12.8576   Zr       46 RES46   0.0000
  6032 O2A     33.0699   0.0000  13.9049   O.co2    46 RES46   0.0000
  6033 C2      35.3269   0.0000  14.5804   C.2      46 RES46   0.0000
  6034 C3      36.6616   0.0000  14.2184   C.2      46 RES46   0.0000
  6035 H3      36.9059   0.0000  13.3006   H        46 RES46   0.0000
  6036 O1A     30.0721  -1.0477  11.4209   O.3      46 RES46   0.0000
  6037 C1      34.2689   0.0000  13.5224   C.2      46 RES46   0.0000
  6038 O2A     29.1696   0.0000  13.9049   O.co2    46 RES46   0.0000
  6039 C2      26.9126   0.0000  14.5804   C.2      46 RES46   0.0000
  6040 C3      25.5779   0.0000  14.2184   C.2      46 RES46   0.0000
  6041 H3      25.3336   0.0000  13.3006   H        46 RES46   0.0000
  6042 O1A     32.1674   1.0477  11.4209   O.3      46 RES46   0.0000
  6043 C1      27.9706   0.0000  13.5224   C.2      46 RES46   0.0000
  6044 Zr1     33.6041   0.0000  10.3733   Zr       46 RES46   0.0000
  6045 O2A     34.6514   1.9502  10.3733   O.co2    46 RES46   0.0000
  6046 C2      35.3269   4.2072  10.3733   C.2      46 RES46   0.0000
  6047 C3      34.9649   5.5418  10.3733   C.2      46 RES46   0.0000
  6048 H3      34.0471   5.7862  10.3733   H        46 RES46   0.0000
  6049 O1A     32.1674  -1.0477   9.3256   O.3      46 RES46   0.0000
  6050 C1      34.2689   3.1491  10.3733   C.2      46 RES46   0.0000
  6051 O2A     34.6514  -1.9502  10.3733   O.co2    46 RES46   0.0000
  6052 C2      35.3269  -4.2072  10.3733   C.2      46 RES46   0.0000
  6053 C3      34.9649  -5.5418  10.3733   C.2      46 RES46   0.0000
  6054 H3      34.0471  -5.7862  10.3733   H        46 RES46   0.0000
  6055 C1      34.2689  -3.1491  10.3733   C.2      46 RES46   0.0000
  6056 Zr1     28.6354   0.0000  10.3733   Zr       46 RES46   0.0000
  6057 O2A     27.5881  -1.9502  10.3733   O.co2    46 RES46   0.0000
  6058 C2      26.9126  -4.2072  10.3733   C.2      46 RES46   0.0000
  6059 C3      27.2746  -5.5418  10.3733   C.2      46 RES46   0.0000
  6060 H3      28.1924  -5.7862  10.3733   H        46 RES46   0.0000
  6061 O1A     30.0721   1.0477   9.3256   O.3      46 RES46   0.0000
  6062 C1      27.9706  -3.1491  10.3733   C.2      46 RES46   0.0000
  6063 O2A     27.5881   1.9502  10.3733   O.co2    46 RES46   0.0000
  6064 C2      26.9126   4.2072  10.3733   C.2      46 RES46   0.0000
  6065 C3      27.2746   5.5418  10.3733   C.2      46 RES46   0.0000
  6066 H3      28.1924   5.7862  10.3733   H        46 RES46   0.0000
  6067 C1      27.9706   3.1491  10.3733   C.2      46 RES46   0.0000
  6068 Zr1     31.1198   2.4844  10.3733   Zr       46 RES46   0.0000
  6069 O2A     31.1198   3.5317  12.3234   O.co2    46 RES46   0.0000
  6070 C2      31.1198   4.2072  14.5804   C.2      46 RES46   0.0000
  6071 C3      31.1198   3.8452  15.9151   C.2      46 RES46   0.0000
  6072 H3      31.1198   2.9273  16.1594   H        46 RES46   0.0000
  6073 C1      31.1198   3.1491  13.5224   C.2      46 RES46   0.0000
  6074 O2A     31.1198   3.5317   8.4231   O.co2    46 RES46   0.0000
  6075 C2      31.1198   4.2072   6.1661   C.2      46 RES46   0.0000
  6076 C3      31.1198   3.8452   4.8314   C.2      46 RES46   0.0000
  6077 H3      31.1198   2.9273   4.5871   H        46 RES46   0.0000
  6078 C1      31.1198   3.1491   7.2241   C.2      46 RES46   0.0000
  6079 Zr1     31.1198  -2.4844  10.3733   Zr       46 RES46   0.0000
  6080 O2A     31.1198  -3.5317   8.4231   O.co2    46 RES46   0.0000
  6081 C2      31.1198  -4.2072   6.1661   C.2      46 RES46   0.0000
  6082 C3      31.1198  -3.8452   4.8314   C.2      46 RES46   0.0000
  6083 H3      31.1198  -2.9273   4.5871   H        46 RES46   0.0000
  6084 C1      31.1198  -3.1491   7.2241   C.2      46 RES46   0.0000
  6085 O2A     31.1198  -3.5317  12.3234   O.co2    46 RES46   0.0000
  6086 C2      31.1198  -4.2072  14.5804   C.2      46 RES46   0.0000
  6087 C3      31.1198  -3.8452  15.9151   C.2      46 RES46   0.0000
  6088 H3      31.1198  -2.9273  16.1594   H        46 RES46   0.0000
  6089 C1      31.1198  -3.1491  13.5224   C.2      46 RES46   0.0000
  6090 Zr1     31.1198   0.0000   7.8889   Zr       46 RES46   0.0000
  6091 O2A     31.1198   1.9502   6.8416   O.co2    46 RES46   0.0000
  6092 C3      31.1198   5.5418   6.5281   C.2      46 RES46   0.0000
  6093 H3      31.1198   5.7862   7.4459   H        46 RES46   0.0000
  6094 O1A     30.0721  -1.0477   9.3256   O.3      46 RES46   0.0000
  6095 O2A     31.1198  -1.9502   6.8416   O.co2    46 RES46   0.0000
  6096 C3      31.1198  -5.5418   6.5281   C.2      46 RES46   0.0000
  6097 H3      31.1198  -5.7862   7.4459   H        46 RES46   0.0000
  6098 O1A     32.1674   1.0477   9.3256   O.3      46 RES46   0.0000
  6099 O2A     31.1198  -1.9502  13.9049   O.co2    46 RES46   0.0000
  6100 C3      31.1198  -5.5418  14.2184   C.2      46 RES46   0.0000
  6101 H3      31.1198  -5.7862  13.3006   H        46 RES46   0.0000
  6102 O1A     30.0721   1.0477  11.4209   O.3      46 RES46   0.0000
  6103 O2A     31.1198   1.9502  13.9049   O.co2    46 RES46   0.0000
  6104 C3      31.1198   5.5418  14.2184   C.2      46 RES46   0.0000
  6105 H3      31.1198   5.7862  13.3006   H        46 RES46   0.0000
  6106 O1A     32.1674  -1.0477  11.4209   O.3      46 RES46   0.0000
  6107 O2A     33.0699   3.5317  10.3733   O.co2    46 RES46   0.0000
  6108 C3      36.6616   3.8452  10.3733   C.2      46 RES46   0.0000
  6109 H3      36.9059   2.9273  10.3733   H        46 RES46   0.0000
  6110 O2A     29.1696   3.5317  10.3733   O.co2    46 RES46   0.0000
  6111 C3      25.5779   3.8452  10.3733   C.2      46 RES46   0.0000
  6112 H3      25.3336   2.9273  10.3733   H        46 RES46   0.0000
  6113 O2A     29.1696  -3.5317  10.3733   O.co2    46 RES46   0.0000
  6114 C3      25.5779  -3.8452  10.3733   C.2      46 RES46   0.0000
  6115 H3      25.3336  -2.9273  10.3733   H        46 RES46   0.0000
  6116 O2A     33.0699  -3.5317  10.3733   O.co2    46 RES46   0.0000
  6117 C3      36.6616  -3.8452  10.3733   C.2      46 RES46   0.0000
  6118 H3      36.9059  -2.9273  10.3733   H        46 RES46   0.0000
  6119 O2A     34.6514   0.0000   8.4231   O.co2    46 RES46   0.0000
  6120 C2      35.3269   0.0000   6.1661   C.2      46 RES46   0.0000
  6121 C3      34.9649   0.0000   4.8314   C.2      46 RES46   0.0000
  6122 H3      34.0471   0.0000   4.5871   H        46 RES46   0.0000
  6123 C1      34.2689   0.0000   7.2241   C.2      46 RES46   0.0000
  6124 O2A     34.6514   0.0000  12.3234   O.co2    46 RES46   0.0000
  6125 C3      34.9649   0.0000  15.9151   C.2      46 RES46   0.0000
  6126 H3      34.0471   0.0000  16.1594   H        46 RES46   0.0000
  6127 O2A     27.5881   0.0000  12.3234   O.co2    46 RES46   0.0000
  6128 C3      27.2746   0.0000  15.9151   C.2      46 RES46   0.0000
  6129 H3      28.1924   0.0000  16.1594   H        46 RES46   0.0000
  6130 O2A     27.5881   0.0000   8.4231   O.co2    46 RES46   0.0000
  6131 C2      26.9126   0.0000   6.1661   C.2      46 RES46   0.0000
  6132 C3      27.2746   0.0000   4.8314   C.2      46 RES46   0.0000
  6133 H3      28.1924   0.0000   4.5871   H        46 RES46   0.0000
  6134 C1      27.9706   0.0000   7.2241   C.2      46 RES46   0.0000
  6135 O2A     29.1696   0.0000   6.8416   O.co2    46 RES46   0.0000
  6136 C3      25.5779   0.0000   6.5281   C.2      46 RES46   0.0000
  6137 H3      25.3336   0.0000   7.4459   H        46 RES46   0.0000
  6138 O2A     33.0699   0.0000   6.8416   O.co2    46 RES46   0.0000
  6139 C3      36.6616   0.0000   6.5281   C.2      46 RES46   0.0000
  6140 H3      36.9059   0.0000   7.4459   H        46 RES46   0.0000
  6141 C3      31.1198  -6.5281   5.5418   C.2      46 RES46   0.0000
  6142 C3      31.1198  -6.5281  15.2047   C.2      46 RES46   0.0000
  6143 C3      31.1198   6.5281  15.2047   C.2      46 RES46   0.0000
  6144 C3      31.1198   6.5281   5.5418   C.2      46 RES46   0.0000
  6145 C3      31.1198  -4.8314  16.9013   C.2      46 RES46   0.0000
  6146 C3      31.1198   4.8314  16.9013   C.2      46 RES46   0.0000
  6147 C3      31.1198   4.8314   3.8452   C.2      46 RES46   0.0000
  6148 C3      31.1198  -4.8314   3.8452   C.2      46 RES46   0.0000
  6149 C3      26.2883   0.0000   3.8452   C.2      46 RES46   0.0000
  6150 C3      35.9512   0.0000   3.8452   C.2      46 RES46   0.0000
  6151 C3      35.9512   0.0000  16.9013   C.2      46 RES46   0.0000
  6152 C3      26.2883   0.0000  16.9013   C.2      46 RES46   0.0000
  6153 C3      24.5917   0.0000  15.2047   C.2      46 RES46   0.0000
  6154 C3      24.5917   0.0000   5.5418   C.2      46 RES46   0.0000
  6155 C3      37.6478   0.0000   5.5418   C.2      46 RES46   0.0000
  6156 C3      37.6478   0.0000  15.2047   C.2      46 RES46   0.0000
  6157 C3      24.5917  -4.8314  10.3733   C.2      46 RES46   0.0000
  6158 C3      24.5917   4.8314  10.3733   C.2      46 RES46   0.0000
  6159 C3      37.6478   4.8314  10.3733   C.2      46 RES46   0.0000
  6160 C3      37.6478  -4.8314  10.3733   C.2      46 RES46   0.0000
  6161 C3      26.2883  -6.5281  10.3733   C.2      46 RES46   0.0000
  6162 C3      35.9512  -6.5281  10.3733   C.2      46 RES46   0.0000
  6163 C3      35.9512   6.5281  10.3733   C.2      46 RES46   0.0000
  6164 C3      26.2883   6.5281  10.3733   C.2      46 RES46   0.0000
  6165 Zr1     31.1198   0.0000  33.6041   Zr       47 RES47   0.0000
  6166 O2A     33.0699   0.0000  34.6514   O.co2    47 RES47   0.0000
  6167 C2      35.3269   0.0000  35.3269   C.2      47 RES47   0.0000
  6168 C3      36.6616   0.0000  34.9649   C.2      47 RES47   0.0000
  6169 H3      36.9059   0.0000  34.0471   H        47 RES47   0.0000
  6170 O1A     30.0721  -1.0477  32.1674   O.3      47 RES47   0.0000
  6171 C1      34.2689   0.0000  34.2689   C.2      47 RES47   0.0000
  6172 O2A     29.1696   0.0000  34.6514   O.co2    47 RES47   0.0000
  6173 C2      26.9126   0.0000  35.3269   C.2      47 RES47   0.0000
  6174 C3      25.5779   0.0000  34.9649   C.2      47 RES47   0.0000
  6175 H3      25.3336   0.0000  34.0471   H        47 RES47   0.0000
  6176 O1A     32.1674   1.0477  32.1674   O.3      47 RES47   0.0000
  6177 C1      27.9706   0.0000  34.2689   C.2      47 RES47   0.0000
  6178 Zr1     33.6041   0.0000  31.1198   Zr       47 RES47   0.0000
  6179 O2A     34.6514   1.9502  31.1198   O.co2    47 RES47   0.0000
  6180 C2      35.3269   4.2072  31.1198   C.2      47 RES47   0.0000
  6181 C3      34.9649   5.5418  31.1198   C.2      47 RES47   0.0000
  6182 H3      34.0471   5.7862  31.1198   H        47 RES47   0.0000
  6183 O1A     32.1674  -1.0477  30.0721   O.3      47 RES47   0.0000
  6184 C1      34.2689   3.1491  31.1198   C.2      47 RES47   0.0000
  6185 O2A     34.6514  -1.9502  31.1198   O.co2    47 RES47   0.0000
  6186 C2      35.3269  -4.2072  31.1198   C.2      47 RES47   0.0000
  6187 C3      34.9649  -5.5418  31.1198   C.2      47 RES47   0.0000
  6188 H3      34.0471  -5.7862  31.1198   H        47 RES47   0.0000
  6189 C1      34.2689  -3.1491  31.1198   C.2      47 RES47   0.0000
  6190 Zr1     28.6354   0.0000  31.1198   Zr       47 RES47   0.0000
  6191 O2A     27.5881  -1.9502  31.1198   O.co2    47 RES47   0.0000
  6192 C2      26.9126  -4.2072  31.1198   C.2      47 RES47   0.0000
  6193 C3      27.2746  -5.5418  31.1198   C.2      47 RES47   0.0000
  6194 H3      28.1924  -5.7862  31.1198   H        47 RES47   0.0000
  6195 O1A     30.0721   1.0477  30.0721   O.3      47 RES47   0.0000
  6196 C1      27.9706  -3.1491  31.1198   C.2      47 RES47   0.0000
  6197 O2A     27.5881   1.9502  31.1198   O.co2    47 RES47   0.0000
  6198 C2      26.9126   4.2072  31.1198   C.2      47 RES47   0.0000
  6199 C3      27.2746   5.5418  31.1198   C.2      47 RES47   0.0000
  6200 H3      28.1924   5.7862  31.1198   H        47 RES47   0.0000
  6201 C1      27.9706   3.1491  31.1198   C.2      47 RES47   0.0000
  6202 Zr1     31.1198   2.4844  31.1198   Zr       47 RES47   0.0000
  6203 O2A     31.1198   3.5317  33.0699   O.co2    47 RES47   0.0000
  6204 C2      31.1198   4.2072  35.3269   C.2      47 RES47   0.0000
  6205 C3      31.1198   3.8452  36.6616   C.2      47 RES47   0.0000
  6206 H3      31.1198   2.9273  36.9059   H        47 RES47   0.0000
  6207 C1      31.1198   3.1491  34.2689   C.2      47 RES47   0.0000
  6208 O2A     31.1198   3.5317  29.1696   O.co2    47 RES47   0.0000
  6209 C2      31.1198   4.2072  26.9126   C.2      47 RES47   0.0000
  6210 C3      31.1198   3.8452  25.5779   C.2      47 RES47   0.0000
  6211 H3      31.1198   2.9273  25.3336   H        47 RES47   0.0000
  6212 C1      31.1198   3.1491  27.9706   C.2      47 RES47   0.0000
  6213 Zr1     31.1198  -2.4844  31.1198   Zr       47 RES47   0.0000
  6214 O2A     31.1198  -3.5317  29.1696   O.co2    47 RES47   0.0000
  6215 C2      31.1198  -4.2072  26.9126   C.2      47 RES47   0.0000
  6216 C3      31.1198  -3.8452  25.5779   C.2      47 RES47   0.0000
  6217 H3      31.1198  -2.9273  25.3336   H        47 RES47   0.0000
  6218 C1      31.1198  -3.1491  27.9706   C.2      47 RES47   0.0000
  6219 O2A     31.1198  -3.5317  33.0699   O.co2    47 RES47   0.0000
  6220 C2      31.1198  -4.2072  35.3269   C.2      47 RES47   0.0000
  6221 C3      31.1198  -3.8452  36.6616   C.2      47 RES47   0.0000
  6222 H3      31.1198  -2.9273  36.9059   H        47 RES47   0.0000
  6223 C1      31.1198  -3.1491  34.2689   C.2      47 RES47   0.0000
  6224 Zr1     31.1198   0.0000  28.6354   Zr       47 RES47   0.0000
  6225 O2A     31.1198   1.9502  27.5881   O.co2    47 RES47   0.0000
  6226 C3      31.1198   5.5418  27.2746   C.2      47 RES47   0.0000
  6227 H3      31.1198   5.7862  28.1924   H        47 RES47   0.0000
  6228 O1A     30.0721  -1.0477  30.0721   O.3      47 RES47   0.0000
  6229 O2A     31.1198  -1.9502  27.5881   O.co2    47 RES47   0.0000
  6230 C3      31.1198  -5.5418  27.2746   C.2      47 RES47   0.0000
  6231 H3      31.1198  -5.7862  28.1924   H        47 RES47   0.0000
  6232 O1A     32.1674   1.0477  30.0721   O.3      47 RES47   0.0000
  6233 O2A     31.1198  -1.9502  34.6514   O.co2    47 RES47   0.0000
  6234 C3      31.1198  -5.5418  34.9649   C.2      47 RES47   0.0000
  6235 H3      31.1198  -5.7862  34.0471   H        47 RES47   0.0000
  6236 O1A     30.0721   1.0477  32.1674   O.3      47 RES47   0.0000
  6237 O2A     31.1198   1.9502  34.6514   O.co2    47 RES47   0.0000
  6238 C3      31.1198   5.5418  34.9649   C.2      47 RES47   0.0000
  6239 H3      31.1198   5.7862  34.0471   H        47 RES47   0.0000
  6240 O1A     32.1674  -1.0477  32.1674   O.3      47 RES47   0.0000
  6241 O2A     33.0699   3.5317  31.1198   O.co2    47 RES47   0.0000
  6242 C3      36.6616   3.8452  31.1198   C.2      47 RES47   0.0000
  6243 H3      36.9059   2.9273  31.1198   H        47 RES47   0.0000
  6244 O2A     29.1696   3.5317  31.1198   O.co2    47 RES47   0.0000
  6245 C3      25.5779   3.8452  31.1198   C.2      47 RES47   0.0000
  6246 H3      25.3336   2.9273  31.1198   H        47 RES47   0.0000
  6247 O2A     29.1696  -3.5317  31.1198   O.co2    47 RES47   0.0000
  6248 C3      25.5779  -3.8452  31.1198   C.2      47 RES47   0.0000
  6249 H3      25.3336  -2.9273  31.1198   H        47 RES47   0.0000
  6250 O2A     33.0699  -3.5317  31.1198   O.co2    47 RES47   0.0000
  6251 C3      36.6616  -3.8452  31.1198   C.2      47 RES47   0.0000
  6252 H3      36.9059  -2.9273  31.1198   H        47 RES47   0.0000
  6253 O2A     34.6514   0.0000  29.1696   O.co2    47 RES47   0.0000
  6254 C2      35.3269   0.0000  26.9126   C.2      47 RES47   0.0000
  6255 C3      34.9649   0.0000  25.5779   C.2      47 RES47   0.0000
  6256 H3      34.0471   0.0000  25.3336   H        47 RES47   0.0000
  6257 C1      34.2689   0.0000  27.9706   C.2      47 RES47   0.0000
  6258 O2A     34.6514   0.0000  33.0699   O.co2    47 RES47   0.0000
  6259 C3      34.9649   0.0000  36.6616   C.2      47 RES47   0.0000
  6260 H3      34.0471   0.0000  36.9059   H        47 RES47   0.0000
  6261 O2A     27.5881   0.0000  33.0699   O.co2    47 RES47   0.0000
  6262 C3      27.2746   0.0000  36.6616   C.2      47 RES47   0.0000
  6263 H3      28.1924   0.0000  36.9059   H        47 RES47   0.0000
  6264 O2A     27.5881   0.0000  29.1696   O.co2    47 RES47   0.0000
  6265 C2      26.9126   0.0000  26.9126   C.2      47 RES47   0.0000
  6266 C3      27.2746   0.0000  25.5779   C.2      47 RES47   0.0000
  6267 H3      28.1924   0.0000  25.3336   H        47 RES47   0.0000
  6268 C1      27.9706   0.0000  27.9706   C.2      47 RES47   0.0000
  6269 O2A     29.1696   0.0000  27.5881   O.co2    47 RES47   0.0000
  6270 C3      25.5779   0.0000  27.2746   C.2      47 RES47   0.0000
  6271 H3      25.3336   0.0000  28.1924   H        47 RES47   0.0000
  6272 O2A     33.0699   0.0000  27.5881   O.co2    47 RES47   0.0000
  6273 C3      36.6616   0.0000  27.2746   C.2      47 RES47   0.0000
  6274 H3      36.9059   0.0000  28.1924   H        47 RES47   0.0000
  6275 C3      31.1198  -6.5281  26.2883   C.2      47 RES47   0.0000
  6276 C3      31.1198  -6.5281  35.9512   C.2      47 RES47   0.0000
  6277 C3      31.1198   6.5281  35.9512   C.2      47 RES47   0.0000
  6278 C3      31.1198   6.5281  26.2883   C.2      47 RES47   0.0000
  6279 C3      31.1198  -4.8314  37.6478   C.2      47 RES47   0.0000
  6280 C3      31.1198   4.8314  37.6478   C.2      47 RES47   0.0000
  6281 C3      31.1198   4.8314  24.5917   C.2      47 RES47   0.0000
  6282 C3      31.1198  -4.8314  24.5917   C.2      47 RES47   0.0000
  6283 C3      26.2883   0.0000  24.5917   C.2      47 RES47   0.0000
  6284 C3      35.9512   0.0000  24.5917   C.2      47 RES47   0.0000
  6285 C3      35.9512   0.0000  37.6478   C.2      47 RES47   0.0000
  6286 C3      26.2883   0.0000  37.6478   C.2      47 RES47   0.0000
  6287 C3      24.5917   0.0000  35.9512   C.2      47 RES47   0.0000
  6288 C3      24.5917   0.0000  26.2883   C.2      47 RES47   0.0000
  6289 C3      37.6478   0.0000  26.2883   C.2      47 RES47   0.0000
  6290 C3      37.6478   0.0000  35.9512   C.2      47 RES47   0.0000
  6291 C3      24.5917  -4.8314  31.1198   C.2      47 RES47   0.0000
  6292 C3      24.5917   4.8314  31.1198   C.2      47 RES47   0.0000
  6293 C3      37.6478   4.8314  31.1198   C.2      47 RES47   0.0000
  6294 C3      37.6478  -4.8314  31.1198   C.2      47 RES47   0.0000
  6295 C3      26.2883  -6.5281  31.1198   C.2      47 RES47   0.0000
  6296 C3      35.9512  -6.5281  31.1198   C.2      47 RES47   0.0000
  6297 C3      35.9512   6.5281  31.1198   C.2      47 RES47   0.0000
  6298 C3      26.2883   6.5281  31.1198   C.2      47 RES47   0.0000
  6299 Zr1     31.1198  20.7465  12.8576   Zr       48 RES48   0.0000
  6300 O2A     33.0699  20.7465  13.9049   O.co2    48 RES48   0.0000
  6301 C2      35.3269  20.7465  14.5804   C.2      48 RES48   0.0000
  6302 C3      36.6616  20.7465  14.2184   C.2      48 RES48   0.0000
  6303 H3      36.9059  20.7465  13.3006   H        48 RES48   0.0000
  6304 O1A     30.0721  19.6988  11.4209   O.3      48 RES48   0.0000
  6305 C1      34.2689  20.7465  13.5224   C.2      48 RES48   0.0000
  6306 O2A     29.1696  20.7465  13.9049   O.co2    48 RES48   0.0000
  6307 C2      26.9126  20.7465  14.5804   C.2      48 RES48   0.0000
  6308 C3      25.5779  20.7465  14.2184   C.2      48 RES48   0.0000
  6309 H3      25.3336  20.7465  13.3006   H        48 RES48   0.0000
  6310 O1A     32.1674  21.7942  11.4209   O.3      48 RES48   0.0000
  6311 C1      27.9706  20.7465  13.5224   C.2      48 RES48   0.0000
  6312 Zr1     33.6041  20.7465  10.3733   Zr       48 RES48   0.0000
  6313 O2A     34.6514  22.6967  10.3733   O.co2    48 RES48   0.0000
  6314 C2      35.3269  24.9537  10.3733   C.2      48 RES48   0.0000
  6315 C3      34.9649  26.2883  10.3733   C.2      48 RES48   0.0000
  6316 H3      34.0471  26.5327  10.3733   H        48 RES48   0.0000
  6317 O1A     32.1674  19.6988   9.3256   O.3      48 RES48   0.0000
  6318 C1      34.2689  23.8956  10.3733   C.2      48 RES48   0.0000
  6319 O2A     34.6514  18.7963  10.3733   O.co2    48 RES48   0.0000
  6320 C2      35.3269  16.5393  10.3733   C.2      48 RES48   0.0000
  6321 C3      34.9649  15.2047  10.3733   C.2      48 RES48   0.0000
  6322 H3      34.0471  14.9603  10.3733   H        48 RES48   0.0000
  6323 C1      34.2689  17.5974  10.3733   C.2      48 RES48   0.0000
  6324 Zr1     28.6354  20.7465  10.3733   Zr       48 RES48   0.0000
  6325 O2A     27.5881  18.7963  10.3733   O.co2    48 RES48   0.0000
  6326 C2      26.9126  16.5393  10.3733   C.2      48 RES48   0.0000
  6327 C3      27.2746  15.2047  10.3733   C.2      48 RES48   0.0000
  6328 H3      28.1924  14.9603  10.3733   H        48 RES48   0.0000
  6329 O1A     30.0721  21.7942   9.3256   O.3      48 RES48   0.0000
  6330 C1      27.9706  17.5974  10.3733   C.2      48 RES48   0.0000
  6331 O2A     27.5881  22.6967  10.3733   O.co2    48 RES48   0.0000
  6332 C2      26.9126  24.9537  10.3733   C.2      48 RES48   0.0000
  6333 C3      27.2746  26.2883  10.3733   C.2      48 RES48   0.0000
  6334 H3      28.1924  26.5327  10.3733   H        48 RES48   0.0000
  6335 C1      27.9706  23.8956  10.3733   C.2      48 RES48   0.0000
  6336 Zr1     31.1198  23.2309  10.3733   Zr       48 RES48   0.0000
  6337 O2A     31.1198  24.2782  12.3234   O.co2    48 RES48   0.0000
  6338 C2      31.1198  24.9537  14.5804   C.2      48 RES48   0.0000
  6339 C3      31.1198  24.5917  15.9151   C.2      48 RES48   0.0000
  6340 H3      31.1198  23.6738  16.1594   H        48 RES48   0.0000
  6341 C1      31.1198  23.8956  13.5224   C.2      48 RES48   0.0000
  6342 O2A     31.1198  24.2782   8.4231   O.co2    48 RES48   0.0000
  6343 C2      31.1198  24.9537   6.1661   C.2      48 RES48   0.0000
  6344 C3      31.1198  24.5917   4.8314   C.2      48 RES48   0.0000
  6345 H3      31.1198  23.6738   4.5871   H        48 RES48   0.0000
  6346 C1      31.1198  23.8956   7.2241   C.2      48 RES48   0.0000
  6347 Zr1     31.1198  18.2621  10.3733   Zr       48 RES48   0.0000
  6348 O2A     31.1198  17.2148   8.4231   O.co2    48 RES48   0.0000
  6349 C2      31.1198  16.5393   6.1661   C.2      48 RES48   0.0000
  6350 C3      31.1198  16.9013   4.8314   C.2      48 RES48   0.0000
  6351 H3      31.1198  17.8192   4.5871   H        48 RES48   0.0000
  6352 C1      31.1198  17.5974   7.2241   C.2      48 RES48   0.0000
  6353 O2A     31.1198  17.2148  12.3234   O.co2    48 RES48   0.0000
  6354 C2      31.1198  16.5393  14.5804   C.2      48 RES48   0.0000
  6355 C3      31.1198  16.9013  15.9151   C.2      48 RES48   0.0000
  6356 H3      31.1198  17.8192  16.1594   H        48 RES48   0.0000
  6357 C1      31.1198  17.5974  13.5224   C.2      48 RES48   0.0000
  6358 Zr1     31.1198  20.7465   7.8889   Zr       48 RES48   0.0000
  6359 O2A     31.1198  22.6967   6.8416   O.co2    48 RES48   0.0000
  6360 C3      31.1198  26.2883   6.5281   C.2      48 RES48   0.0000
  6361 H3      31.1198  26.5327   7.4459   H        48 RES48   0.0000
  6362 O1A     30.0721  19.6988   9.3256   O.3      48 RES48   0.0000
  6363 O2A     31.1198  18.7963   6.8416   O.co2    48 RES48   0.0000
  6364 C3      31.1198  15.2047   6.5281   C.2      48 RES48   0.0000
  6365 H3      31.1198  14.9603   7.4459   H        48 RES48   0.0000
  6366 O1A     32.1674  21.7942   9.3256   O.3      48 RES48   0.0000
  6367 O2A     31.1198  18.7963  13.9049   O.co2    48 RES48   0.0000
  6368 C3      31.1198  15.2047  14.2184   C.2      48 RES48   0.0000
  6369 H3      31.1198  14.9603  13.3006   H        48 RES48   0.0000
  6370 O1A     30.0721  21.7942  11.4209   O.3      48 RES48   0.0000
  6371 O2A     31.1198  22.6967  13.9049   O.co2    48 RES48   0.0000
  6372 C3      31.1198  26.2883  14.2184   C.2      48 RES48   0.0000
  6373 H3      31.1198  26.5327  13.3006   H        48 RES48   0.0000
  6374 O1A     32.1674  19.6988  11.4209   O.3      48 RES48   0.0000
  6375 O2A     33.0699  24.2782  10.3733   O.co2    48 RES48   0.0000
  6376 C3      36.6616  24.5917  10.3733   C.2      48 RES48   0.0000
  6377 H3      36.9059  23.6738  10.3733   H        48 RES48   0.0000
  6378 O2A     29.1696  24.2782  10.3733   O.co2    48 RES48   0.0000
  6379 C3      25.5779  24.5917  10.3733   C.2      48 RES48   0.0000
  6380 H3      25.3336  23.6738  10.3733   H        48 RES48   0.0000
  6381 O2A     29.1696  17.2148  10.3733   O.co2    48 RES48   0.0000
  6382 C3      25.5779  16.9013  10.3733   C.2      48 RES48   0.0000
  6383 H3      25.3336  17.8192  10.3733   H        48 RES48   0.0000
  6384 O2A     33.0699  17.2148  10.3733   O.co2    48 RES48   0.0000
  6385 C3      36.6616  16.9013  10.3733   C.2      48 RES48   0.0000
  6386 H3      36.9059  17.8192  10.3733   H        48 RES48   0.0000
  6387 O2A     34.6514  20.7465   8.4231   O.co2    48 RES48   0.0000
  6388 C2      35.3269  20.7465   6.1661   C.2      48 RES48   0.0000
  6389 C3      34.9649  20.7465   4.8314   C.2      48 RES48   0.0000
  6390 H3      34.0471  20.7465   4.5871   H        48 RES48   0.0000
  6391 C1      34.2689  20.7465   7.2241   C.2      48 RES48   0.0000
  6392 O2A     34.6514  20.7465  12.3234   O.co2    48 RES48   0.0000
  6393 C3      34.9649  20.7465  15.9151   C.2      48 RES48   0.0000
  6394 H3      34.0471  20.7465  16.1594   H        48 RES48   0.0000
  6395 O2A     27.5881  20.7465  12.3234   O.co2    48 RES48   0.0000
  6396 C3      27.2746  20.7465  15.9151   C.2      48 RES48   0.0000
  6397 H3      28.1924  20.7465  16.1594   H        48 RES48   0.0000
  6398 O2A     27.5881  20.7465   8.4231   O.co2    48 RES48   0.0000
  6399 C2      26.9126  20.7465   6.1661   C.2      48 RES48   0.0000
  6400 C3      27.2746  20.7465   4.8314   C.2      48 RES48   0.0000
  6401 H3      28.1924  20.7465   4.5871   H        48 RES48   0.0000
  6402 C1      27.9706  20.7465   7.2241   C.2      48 RES48   0.0000
  6403 O2A     29.1696  20.7465   6.8416   O.co2    48 RES48   0.0000
  6404 C3      25.5779  20.7465   6.5281   C.2      48 RES48   0.0000
  6405 H3      25.3336  20.7465   7.4459   H        48 RES48   0.0000
  6406 O2A     33.0699  20.7465   6.8416   O.co2    48 RES48   0.0000
  6407 C3      36.6616  20.7465   6.5281   C.2      48 RES48   0.0000
  6408 H3      36.9059  20.7465   7.4459   H        48 RES48   0.0000
  6409 C3      31.1198  14.2184   5.5418   C.2      48 RES48   0.0000
  6410 C3      31.1198  14.2184  15.2047   C.2      48 RES48   0.0000
  6411 C3      31.1198  27.2746  15.2047   C.2      48 RES48   0.0000
  6412 C3      31.1198  27.2746   5.5418   C.2      48 RES48   0.0000
  6413 C3      31.1198  15.9151  16.9013   C.2      48 RES48   0.0000
  6414 C3      31.1198  25.5779  16.9013   C.2      48 RES48   0.0000
  6415 C3      31.1198  25.5779   3.8452   C.2      48 RES48   0.0000
  6416 C3      31.1198  15.9151   3.8452   C.2      48 RES48   0.0000
  6417 C3      26.2883  20.7465   3.8452   C.2      48 RES48   0.0000
  6418 C3      35.9512  20.7465   3.8452   C.2      48 RES48   0.0000
  6419 C3      35.9512  20.7465  16.9013   C.2      48 RES48   0.0000
  6420 C3      26.2883  20.7465  16.9013   C.2      48 RES48   0.0000
  6421 C3      24.5917  20.7465  15.2047   C.2      48 RES48   0.0000
  6422 C3      24.5917  20.7465   5.5418   C.2      48 RES48   0.0000
  6423 C3      37.6478  20.7465   5.5418   C.2      48 RES48   0.0000
  6424 C3      37.6478  20.7465  15.2047   C.2      48 RES48   0.0000
  6425 C3      24.5917  15.9151  10.3733   C.2      48 RES48   0.0000
  6426 C3      24.5917  25.5779  10.3733   C.2      48 RES48   0.0000
  6427 C3      37.6478  25.5779  10.3733   C.2      48 RES48   0.0000
  6428 C3      37.6478  15.9151  10.3733   C.2      48 RES48   0.0000
  6429 C3      26.2883  14.2184  10.3733   C.2      48 RES48   0.0000
  6430 C3      35.9512  14.2184  10.3733   C.2      48 RES48   0.0000
  6431 C3      35.9512  27.2746  10.3733   C.2      48 RES48   0.0000
  6432 C3      26.2883  27.2746  10.3733   C.2      48 RES48   0.0000
  6433 Zr1     31.1198  20.7465  33.6041   Zr       49 RES49   0.0000
  6434 O2A     33.0699  20.7465  34.6514   O.co2    49 RES49   0.0000
  6435 C2      35.3269  20.7465  35.3269   C.2      49 RES49   0.0000
  6436 C3      36.6616  20.7465  34.9649   C.2      49 RES49   0.0000
  6437 H3      36.9059  20.7465  34.0471   H        49 RES49   0.0000
  6438 O1A     30.0721  19.6988  32.1674   O.3      49 RES49   0.0000
  6439 C1      34.2689  20.7465  34.2689   C.2      49 RES49   0.0000
  6440 O2A     29.1696  20.7465  34.6514   O.co2    49 RES49   0.0000
  6441 C2      26.9126  20.7465  35.3269   C.2      49 RES49   0.0000
  6442 C3      25.5779  20.7465  34.9649   C.2      49 RES49   0.0000
  6443 H3      25.3336  20.7465  34.0471   H        49 RES49   0.0000
  6444 O1A     32.1674  21.7942  32.1674   O.3      49 RES49   0.0000
  6445 C1      27.9706  20.7465  34.2689   C.2      49 RES49   0.0000
  6446 Zr1     33.6041  20.7465  31.1198   Zr       49 RES49   0.0000
  6447 O2A     34.6514  22.6967  31.1198   O.co2    49 RES49   0.0000
  6448 C2      35.3269  24.9537  31.1198   C.2      49 RES49   0.0000
  6449 C3      34.9649  26.2883  31.1198   C.2      49 RES49   0.0000
  6450 H3      34.0471  26.5327  31.1198   H        49 RES49   0.0000
  6451 O1A     32.1674  19.6988  30.0721   O.3      49 RES49   0.0000
  6452 C1      34.2689  23.8956  31.1198   C.2      49 RES49   0.0000
  6453 O2A     34.6514  18.7963  31.1198   O.co2    49 RES49   0.0000
  6454 C2      35.3269  16.5393  31.1198   C.2      49 RES49   0.0000
  6455 C3      34.9649  15.2047  31.1198   C.2      49 RES49   0.0000
  6456 H3      34.0471  14.9603  31.1198   H        49 RES49   0.0000
  6457 C1      34.2689  17.5974  31.1198   C.2      49 RES49   0.0000
  6458 Zr1     28.6354  20.7465  31.1198   Zr       49 RES49   0.0000
  6459 O2A     27.5881  18.7963  31.1198   O.co2    49 RES49   0.0000
  6460 C2      26.9126  16.5393  31.1198   C.2      49 RES49   0.0000
  6461 C3      27.2746  15.2047  31.1198   C.2      49 RES49   0.0000
  6462 H3      28.1924  14.9603  31.1198   H        49 RES49   0.0000
  6463 O1A     30.0721  21.7942  30.0721   O.3      49 RES49   0.0000
  6464 C1      27.9706  17.5974  31.1198   C.2      49 RES49   0.0000
  6465 O2A     27.5881  22.6967  31.1198   O.co2    49 RES49   0.0000
  6466 C2      26.9126  24.9537  31.1198   C.2      49 RES49   0.0000
  6467 C3      27.2746  26.2883  31.1198   C.2      49 RES49   0.0000
  6468 H3      28.1924  26.5327  31.1198   H        49 RES49   0.0000
  6469 C1      27.9706  23.8956  31.1198   C.2      49 RES49   0.0000
  6470 Zr1     31.1198  23.2309  31.1198   Zr       49 RES49   0.0000
  6471 O2A     31.1198  24.2782  33.0699   O.co2    49 RES49   0.0000
  6472 C2      31.1198  24.9537  35.3269   C.2      49 RES49   0.0000
  6473 C3      31.1198  24.5917  36.6616   C.2      49 RES49   0.0000
  6474 H3      31.1198  23.6738  36.9059   H        49 RES49   0.0000
  6475 C1      31.1198  23.8956  34.2689   C.2      49 RES49   0.0000
  6476 O2A     31.1198  24.2782  29.1696   O.co2    49 RES49   0.0000
  6477 C2      31.1198  24.9537  26.9126   C.2      49 RES49   0.0000
  6478 C3      31.1198  24.5917  25.5779   C.2      49 RES49   0.0000
  6479 H3      31.1198  23.6738  25.3336   H        49 RES49   0.0000
  6480 C1      31.1198  23.8956  27.9706   C.2      49 RES49   0.0000
  6481 Zr1     31.1198  18.2621  31.1198   Zr       49 RES49   0.0000
  6482 O2A     31.1198  17.2148  29.1696   O.co2    49 RES49   0.0000
  6483 C2      31.1198  16.5393  26.9126   C.2      49 RES49   0.0000
  6484 C3      31.1198  16.9013  25.5779   C.2      49 RES49   0.0000
  6485 H3      31.1198  17.8192  25.3336   H        49 RES49   0.0000
  6486 C1      31.1198  17.5974  27.9706   C.2      49 RES49   0.0000
  6487 O2A     31.1198  17.2148  33.0699   O.co2    49 RES49   0.0000
  6488 C2      31.1198  16.5393  35.3269   C.2      49 RES49   0.0000
  6489 C3      31.1198  16.9013  36.6616   C.2      49 RES49   0.0000
  6490 H3      31.1198  17.8192  36.9059   H        49 RES49   0.0000
  6491 C1      31.1198  17.5974  34.2689   C.2      49 RES49   0.0000
  6492 Zr1     31.1198  20.7465  28.6354   Zr       49 RES49   0.0000
  6493 O2A     31.1198  22.6967  27.5881   O.co2    49 RES49   0.0000
  6494 C3      31.1198  26.2883  27.2746   C.2      49 RES49   0.0000
  6495 H3      31.1198  26.5327  28.1924   H        49 RES49   0.0000
  6496 O1A     30.0721  19.6988  30.0721   O.3      49 RES49   0.0000
  6497 O2A     31.1198  18.7963  27.5881   O.co2    49 RES49   0.0000
  6498 C3      31.1198  15.2047  27.2746   C.2      49 RES49   0.0000
  6499 H3      31.1198  14.9603  28.1924   H        49 RES49   0.0000
  6500 O1A     32.1674  21.7942  30.0721   O.3      49 RES49   0.0000
  6501 O2A     31.1198  18.7963  34.6514   O.co2    49 RES49   0.0000
  6502 C3      31.1198  15.2047  34.9649   C.2      49 RES49   0.0000
  6503 H3      31.1198  14.9603  34.0471   H        49 RES49   0.0000
  6504 O1A     30.0721  21.7942  32.1674   O.3      49 RES49   0.0000
  6505 O2A     31.1198  22.6967  34.6514   O.co2    49 RES49   0.0000
  6506 C3      31.1198  26.2883  34.9649   C.2      49 RES49   0.0000
  6507 H3      31.1198  26.5327  34.0471   H        49 RES49   0.0000
  6508 O1A     32.1674  19.6988  32.1674   O.3      49 RES49   0.0000
  6509 O2A     33.0699  24.2782  31.1198   O.co2    49 RES49   0.0000
  6510 C3      36.6616  24.5917  31.1198   C.2      49 RES49   0.0000
  6511 H3      36.9059  23.6738  31.1198   H        49 RES49   0.0000
  6512 O2A     29.1696  24.2782  31.1198   O.co2    49 RES49   0.0000
  6513 C3      25.5779  24.5917  31.1198   C.2      49 RES49   0.0000
  6514 H3      25.3336  23.6738  31.1198   H        49 RES49   0.0000
  6515 O2A     29.1696  17.2148  31.1198   O.co2    49 RES49   0.0000
  6516 C3      25.5779  16.9013  31.1198   C.2      49 RES49   0.0000
  6517 H3      25.3336  17.8192  31.1198   H        49 RES49   0.0000
  6518 O2A     33.0699  17.2148  31.1198   O.co2    49 RES49   0.0000
  6519 C3      36.6616  16.9013  31.1198   C.2      49 RES49   0.0000
  6520 H3      36.9059  17.8192  31.1198   H        49 RES49   0.0000
  6521 O2A     34.6514  20.7465  29.1696   O.co2    49 RES49   0.0000
  6522 C2      35.3269  20.7465  26.9126   C.2      49 RES49   0.0000
  6523 C3      34.9649  20.7465  25.5779   C.2      49 RES49   0.0000
  6524 H3      34.0471  20.7465  25.3336   H        49 RES49   0.0000
  6525 C1      34.2689  20.7465  27.9706   C.2      49 RES49   0.0000
  6526 O2A     34.6514  20.7465  33.0699   O.co2    49 RES49   0.0000
  6527 C3      34.9649  20.7465  36.6616   C.2      49 RES49   0.0000
  6528 H3      34.0471  20.7465  36.9059   H        49 RES49   0.0000
  6529 O2A     27.5881  20.7465  33.0699   O.co2    49 RES49   0.0000
  6530 C3      27.2746  20.7465  36.6616   C.2      49 RES49   0.0000
  6531 H3      28.1924  20.7465  36.9059   H        49 RES49   0.0000
  6532 O2A     27.5881  20.7465  29.1696   O.co2    49 RES49   0.0000
  6533 C2      26.9126  20.7465  26.9126   C.2      49 RES49   0.0000
  6534 C3      27.2746  20.7465  25.5779   C.2      49 RES49   0.0000
  6535 H3      28.1924  20.7465  25.3336   H        49 RES49   0.0000
  6536 C1      27.9706  20.7465  27.9706   C.2      49 RES49   0.0000
  6537 O2A     29.1696  20.7465  27.5881   O.co2    49 RES49   0.0000
  6538 C3      25.5779  20.7465  27.2746   C.2      49 RES49   0.0000
  6539 H3      25.3336  20.7465  28.1924   H        49 RES49   0.0000
  6540 O2A     33.0699  20.7465  27.5881   O.co2    49 RES49   0.0000
  6541 C3      36.6616  20.7465  27.2746   C.2      49 RES49   0.0000
  6542 H3      36.9059  20.7465  28.1924   H        49 RES49   0.0000
  6543 C3      31.1198  14.2184  26.2883   C.2      49 RES49   0.0000
  6544 C3      31.1198  14.2184  35.9512   C.2      49 RES49   0.0000
  6545 C3      31.1198  27.2746  35.9512   C.2      49 RES49   0.0000
  6546 C3      31.1198  27.2746  26.2883   C.2      49 RES49   0.0000
  6547 C3      31.1198  15.9151  37.6478   C.2      49 RES49   0.0000
  6548 C3      31.1198  25.5779  37.6478   C.2      49 RES49   0.0000
  6549 C3      31.1198  25.5779  24.5917   C.2      49 RES49   0.0000
  6550 C3      31.1198  15.9151  24.5917   C.2      49 RES49   0.0000
  6551 C3      26.2883  20.7465  24.5917   C.2      49 RES49   0.0000
  6552 C3      35.9512  20.7465  24.5917   C.2      49 RES49   0.0000
  6553 C3      35.9512  20.7465  37.6478   C.2      49 RES49   0.0000
  6554 C3      26.2883  20.7465  37.6478   C.2      49 RES49   0.0000
  6555 C3      24.5917  20.7465  35.9512   C.2      49 RES49   0.0000
  6556 C3      24.5917  20.7465  26.2883   C.2      49 RES49   0.0000
  6557 C3      37.6478  20.7465  26.2883   C.2      49 RES49   0.0000
  6558 C3      37.6478  20.7465  35.9512   C.2      49 RES49   0.0000
  6559 C3      24.5917  15.9151  31.1198   C.2      49 RES49   0.0000
  6560 C3      24.5917  25.5779  31.1198   C.2      49 RES49   0.0000
  6561 C3      37.6478  25.5779  31.1198   C.2      49 RES49   0.0000
  6562 C3      37.6478  15.9151  31.1198   C.2      49 RES49   0.0000
  6563 C3      26.2883  14.2184  31.1198   C.2      49 RES49   0.0000
  6564 C3      35.9512  14.2184  31.1198   C.2      49 RES49   0.0000
  6565 C3      35.9512  27.2746  31.1198   C.2      49 RES49   0.0000
  6566 C3      26.2883  27.2746  31.1198   C.2      49 RES49   0.0000
  6567 Zr1     31.1198  41.4930  12.8576   Zr       50 RES50   0.0000
  6568 O2A     33.0699  41.4930  13.9049   O.co2    50 RES50   0.0000
  6569 C2      35.3269  41.4930  14.5804   C.2      50 RES50   0.0000
  6570 C3      36.6616  41.4930  14.2184   C.2      50 RES50   0.0000
  6571 H3      36.9059  41.4930  13.3006   H        50 RES50   0.0000
  6572 O1A     30.0721  40.4453  11.4209   O.3      50 RES50   0.0000
  6573 C1      34.2689  41.4930  13.5224   C.2      50 RES50   0.0000
  6574 O2A     29.1696  41.4930  13.9049   O.co2    50 RES50   0.0000
  6575 C2      26.9126  41.4930  14.5804   C.2      50 RES50   0.0000
  6576 C3      25.5779  41.4930  14.2184   C.2      50 RES50   0.0000
  6577 H3      25.3336  41.4930  13.3006   H        50 RES50   0.0000
  6578 O1A     32.1674  42.5407  11.4209   O.3      50 RES50   0.0000
  6579 C1      27.9706  41.4930  13.5224   C.2      50 RES50   0.0000
  6580 Zr1     33.6041  41.4930  10.3733   Zr       50 RES50   0.0000
  6581 O2A     34.6514  43.4432  10.3733   O.co2    50 RES50   0.0000
  6582 C2      35.3269  45.7002  10.3733   C.2      50 RES50   0.0000
  6583 C3      34.9649  47.0348  10.3733   C.2      50 RES50   0.0000
  6584 H3      34.0471  47.2792  10.3733   H        50 RES50   0.0000
  6585 O1A     32.1674  40.4453   9.3256   O.3      50 RES50   0.0000
  6586 C1      34.2689  44.6421  10.3733   C.2      50 RES50   0.0000
  6587 O2A     34.6514  39.5428  10.3733   O.co2    50 RES50   0.0000
  6588 C2      35.3269  37.2858  10.3733   C.2      50 RES50   0.0000
  6589 C3      34.9649  35.9512  10.3733   C.2      50 RES50   0.0000
  6590 H3      34.0471  35.7068  10.3733   H        50 RES50   0.0000
  6591 C1      34.2689  38.3439  10.3733   C.2      50 RES50   0.0000
  6592 Zr1     28.6354  41.4930  10.3733   Zr       50 RES50   0.0000
  6593 O2A     27.5881  39.5428  10.3733   O.co2    50 RES50   0.0000
  6594 C2      26.9126  37.2858  10.3733   C.2      50 RES50   0.0000
  6595 C3      27.2746  35.9512  10.3733   C.2      50 RES50   0.0000
  6596 H3      28.1924  35.7068  10.3733   H        50 RES50   0.0000
  6597 O1A     30.0721  42.5407   9.3256   O.3      50 RES50   0.0000
  6598 C1      27.9706  38.3439  10.3733   C.2      50 RES50   0.0000
  6599 O2A     27.5881  43.4432  10.3733   O.co2    50 RES50   0.0000
  6600 C2      26.9126  45.7002  10.3733   C.2      50 RES50   0.0000
  6601 C3      27.2746  47.0348  10.3733   C.2      50 RES50   0.0000
  6602 H3      28.1924  47.2792  10.3733   H        50 RES50   0.0000
  6603 C1      27.9706  44.6421  10.3733   C.2      50 RES50   0.0000
  6604 Zr1     31.1198  43.9774  10.3733   Zr       50 RES50   0.0000
  6605 O2A     31.1198  45.0247  12.3234   O.co2    50 RES50   0.0000
  6606 C2      31.1198  45.7002  14.5804   C.2      50 RES50   0.0000
  6607 C3      31.1198  45.3382  15.9151   C.2      50 RES50   0.0000
  6608 H3      31.1198  44.4203  16.1594   H        50 RES50   0.0000
  6609 C1      31.1198  44.6421  13.5224   C.2      50 RES50   0.0000
  6610 O2A     31.1198  45.0247   8.4231   O.co2    50 RES50   0.0000
  6611 C2      31.1198  45.7002   6.1661   C.2      50 RES50   0.0000
  6612 C3      31.1198  45.3382   4.8314   C.2      50 RES50   0.0000
  6613 H3      31.1198  44.4203   4.5871   H        50 RES50   0.0000
  6614 C1      31.1198  44.6421   7.2241   C.2      50 RES50   0.0000
  6615 Zr1     31.1198  39.0086  10.3733   Zr       50 RES50   0.0000
  6616 O2A     31.1198  37.9613   8.4231   O.co2    50 RES50   0.0000
  6617 C2      31.1198  37.2858   6.1661   C.2      50 RES50   0.0000
  6618 C3      31.1198  37.6478   4.8314   C.2      50 RES50   0.0000
  6619 H3      31.1198  38.5657   4.5871   H        50 RES50   0.0000
  6620 C1      31.1198  38.3439   7.2241   C.2      50 RES50   0.0000
  6621 O2A     31.1198  37.9613  12.3234   O.co2    50 RES50   0.0000
  6622 C2      31.1198  37.2858  14.5804   C.2      50 RES50   0.0000
  6623 C3      31.1198  37.6478  15.9151   C.2      50 RES50   0.0000
  6624 H3      31.1198  38.5657  16.1594   H        50 RES50   0.0000
  6625 C1      31.1198  38.3439  13.5224   C.2      50 RES50   0.0000
  6626 Zr1     31.1198  41.4930   7.8889   Zr       50 RES50   0.0000
  6627 O2A     31.1198  43.4432   6.8416   O.co2    50 RES50   0.0000
  6628 C3      31.1198  47.0348   6.5281   C.2      50 RES50   0.0000
  6629 H3      31.1198  47.2792   7.4459   H        50 RES50   0.0000
  6630 O1A     30.0721  40.4453   9.3256   O.3      50 RES50   0.0000
  6631 O2A     31.1198  39.5428   6.8416   O.co2    50 RES50   0.0000
  6632 C3      31.1198  35.9512   6.5281   C.2      50 RES50   0.0000
  6633 H3      31.1198  35.7068   7.4459   H        50 RES50   0.0000
  6634 O1A     32.1674  42.5407   9.3256   O.3      50 RES50   0.0000
  6635 O2A     31.1198  39.5428  13.9049   O.co2    50 RES50   0.0000
  6636 C3      31.1198  35.9512  14.2184   C.2      50 RES50   0.0000
  6637 H3      31.1198  35.7068  13.3006   H        50 RES50   0.0000
  6638 O1A     30.0721  42.5407  11.4209   O.3      50 RES50   0.0000
  6639 O2A     31.1198  43.4432  13.9049   O.co2    50 RES50   0.0000
  6640 C3      31.1198  47.0348  14.2184   C.2      50 RES50   0.0000
  6641 H3      31.1198  47.2792  13.3006   H        50 RES50   0.0000
  6642 O1A     32.1674  40.4453  11.4209   O.3      50 RES50   0.0000
  6643 O2A     33.0699  45.0247  10.3733   O.co2    50 RES50   0.0000
  6644 C3      36.6616  45.3382  10.3733   C.2      50 RES50   0.0000
  6645 H3      36.9059  44.4203  10.3733   H        50 RES50   0.0000
  6646 O2A     29.1696  45.0247  10.3733   O.co2    50 RES50   0.0000
  6647 C3      25.5779  45.3382  10.3733   C.2      50 RES50   0.0000
  6648 H3      25.3336  44.4203  10.3733   H        50 RES50   0.0000
  6649 O2A     29.1696  37.9613  10.3733   O.co2    50 RES50   0.0000
  6650 C3      25.5779  37.6478  10.3733   C.2      50 RES50   0.0000
  6651 H3      25.3336  38.5657  10.3733   H        50 RES50   0.0000
  6652 O2A     33.0699  37.9613  10.3733   O.co2    50 RES50   0.0000
  6653 C3      36.6616  37.6478  10.3733   C.2      50 RES50   0.0000
  6654 H3      36.9059  38.5657  10.3733   H        50 RES50   0.0000
  6655 O2A     34.6514  41.4930   8.4231   O.co2    50 RES50   0.0000
  6656 C2      35.3269  41.4930   6.1661   C.2      50 RES50   0.0000
  6657 C3      34.9649  41.4930   4.8314   C.2      50 RES50   0.0000
  6658 H3      34.0471  41.4930   4.5871   H        50 RES50   0.0000
  6659 C1      34.2689  41.4930   7.2241   C.2      50 RES50   0.0000
  6660 O2A     34.6514  41.4930  12.3234   O.co2    50 RES50   0.0000
  6661 C3      34.9649  41.4930  15.9151   C.2      50 RES50   0.0000
  6662 H3      34.0471  41.4930  16.1594   H        50 RES50   0.0000
  6663 O2A     27.5881  41.4930  12.3234   O.co2    50 RES50   0.0000
  6664 C3      27.2746  41.4930  15.9151   C.2      50 RES50   0.0000
  6665 H3      28.1924  41.4930  16.1594   H        50 RES50   0.0000
  6666 O2A     27.5881  41.4930   8.4231   O.co2    50 RES50   0.0000
  6667 C2      26.9126  41.4930   6.1661   C.2      50 RES50   0.0000
  6668 C3      27.2746  41.4930   4.8314   C.2      50 RES50   0.0000
  6669 H3      28.1924  41.4930   4.5871   H        50 RES50   0.0000
  6670 C1      27.9706  41.4930   7.2241   C.2      50 RES50   0.0000
  6671 O2A     29.1696  41.4930   6.8416   O.co2    50 RES50   0.0000
  6672 C3      25.5779  41.4930   6.5281   C.2      50 RES50   0.0000
  6673 H3      25.3336  41.4930   7.4459   H        50 RES50   0.0000
  6674 O2A     33.0699  41.4930   6.8416   O.co2    50 RES50   0.0000
  6675 C3      36.6616  41.4930   6.5281   C.2      50 RES50   0.0000
  6676 H3      36.9059  41.4930   7.4459   H        50 RES50   0.0000
  6677 C3      31.1198  34.9649   5.5418   C.2      50 RES50   0.0000
  6678 C3      31.1198  34.9649  15.2047   C.2      50 RES50   0.0000
  6679 C3      31.1198  48.0211  15.2047   C.2      50 RES50   0.0000
  6680 C3      31.1198  48.0211   5.5418   C.2      50 RES50   0.0000
  6681 C3      31.1198  36.6616  16.9013   C.2      50 RES50   0.0000
  6682 C3      31.1198  46.3244  16.9013   C.2      50 RES50   0.0000
  6683 C3      31.1198  46.3244   3.8452   C.2      50 RES50   0.0000
  6684 C3      31.1198  36.6616   3.8452   C.2      50 RES50   0.0000
  6685 C3      26.2883  41.4930   3.8452   C.2      50 RES50   0.0000
  6686 C3      35.9512  41.4930   3.8452   C.2      50 RES50   0.0000
  6687 C3      35.9512  41.4930  16.9013   C.2      50 RES50   0.0000
  6688 C3      26.2883  41.4930  16.9013   C.2      50 RES50   0.0000
  6689 C3      24.5917  41.4930  15.2047   C.2      50 RES50   0.0000
  6690 C3      24.5917  41.4930   5.5418   C.2      50 RES50   0.0000
  6691 C3      37.6478  41.4930   5.5418   C.2      50 RES50   0.0000
  6692 C3      37.6478  41.4930  15.2047   C.2      50 RES50   0.0000
  6693 C3      24.5917  36.6616  10.3733   C.2      50 RES50   0.0000
  6694 C3      24.5917  46.3244  10.3733   C.2      50 RES50   0.0000
  6695 C3      37.6478  46.3244  10.3733   C.2      50 RES50   0.0000
  6696 C3      37.6478  36.6616  10.3733   C.2      50 RES50   0.0000
  6697 C3      26.2883  34.9649  10.3733   C.2      50 RES50   0.0000
  6698 C3      35.9512  34.9649  10.3733   C.2      50 RES50   0.0000
  6699 C3      35.9512  48.0211  10.3733   C.2      50 RES50   0.0000
  6700 C3      26.2883  48.0211  10.3733   C.2      50 RES50   0.0000
  6701 Zr1     31.1198  41.4930  33.6041   Zr       51 RES51   0.0000
  6702 O2A     33.0699  41.4930  34.6514   O.co2    51 RES51   0.0000
  6703 C2      35.3269  41.4930  35.3269   C.2      51 RES51   0.0000
  6704 C3      36.6616  41.4930  34.9649   C.2      51 RES51   0.0000
  6705 H3      36.9059  41.4930  34.0471   H        51 RES51   0.0000
  6706 O1A     30.0721  40.4453  32.1674   O.3      51 RES51   0.0000
  6707 C1      34.2689  41.4930  34.2689   C.2      51 RES51   0.0000
  6708 O2A     29.1696  41.4930  34.6514   O.co2    51 RES51   0.0000
  6709 C2      26.9126  41.4930  35.3269   C.2      51 RES51   0.0000
  6710 C3      25.5779  41.4930  34.9649   C.2      51 RES51   0.0000
  6711 H3      25.3336  41.4930  34.0471   H        51 RES51   0.0000
  6712 O1A     32.1674  42.5407  32.1674   O.3      51 RES51   0.0000
  6713 C1      27.9706  41.4930  34.2689   C.2      51 RES51   0.0000
  6714 Zr1     33.6041  41.4930  31.1198   Zr       51 RES51   0.0000
  6715 O2A     34.6514  43.4432  31.1198   O.co2    51 RES51   0.0000
  6716 C2      35.3269  45.7002  31.1198   C.2      51 RES51   0.0000
  6717 C3      34.9649  47.0348  31.1198   C.2      51 RES51   0.0000
  6718 H3      34.0471  47.2792  31.1198   H        51 RES51   0.0000
  6719 O1A     32.1674  40.4453  30.0721   O.3      51 RES51   0.0000
  6720 C1      34.2689  44.6421  31.1198   C.2      51 RES51   0.0000
  6721 O2A     34.6514  39.5428  31.1198   O.co2    51 RES51   0.0000
  6722 C2      35.3269  37.2858  31.1198   C.2      51 RES51   0.0000
  6723 C3      34.9649  35.9512  31.1198   C.2      51 RES51   0.0000
  6724 H3      34.0471  35.7068  31.1198   H        51 RES51   0.0000
  6725 C1      34.2689  38.3439  31.1198   C.2      51 RES51   0.0000
  6726 Zr1     28.6354  41.4930  31.1198   Zr       51 RES51   0.0000
  6727 O2A     27.5881  39.5428  31.1198   O.co2    51 RES51   0.0000
  6728 C2      26.9126  37.2858  31.1198   C.2      51 RES51   0.0000
  6729 C3      27.2746  35.9512  31.1198   C.2      51 RES51   0.0000
  6730 H3      28.1924  35.7068  31.1198   H        51 RES51   0.0000
  6731 O1A     30.0721  42.5407  30.0721   O.3      51 RES51   0.0000
  6732 C1      27.9706  38.3439  31.1198   C.2      51 RES51   0.0000
  6733 O2A     27.5881  43.4432  31.1198   O.co2    51 RES51   0.0000
  6734 C2      26.9126  45.7002  31.1198   C.2      51 RES51   0.0000
  6735 C3      27.2746  47.0348  31.1198   C.2      51 RES51   0.0000
  6736 H3      28.1924  47.2792  31.1198   H        51 RES51   0.0000
  6737 C1      27.9706  44.6421  31.1198   C.2      51 RES51   0.0000
  6738 Zr1     31.1198  43.9774  31.1198   Zr       51 RES51   0.0000
  6739 O2A     31.1198  45.0247  33.0699   O.co2    51 RES51   0.0000
  6740 C2      31.1198  45.7002  35.3269   C.2      51 RES51   0.0000
  6741 C3      31.1198  45.3382  36.6616   C.2      51 RES51   0.0000
  6742 H3      31.1198  44.4203  36.9059   H        51 RES51   0.0000
  6743 C1      31.1198  44.6421  34.2689   C.2      51 RES51   0.0000
  6744 O2A     31.1198  45.0247  29.1696   O.co2    51 RES51   0.0000
  6745 C2      31.1198  45.7002  26.9126   C.2      51 RES51   0.0000
  6746 C3      31.1198  45.3382  25.5779   C.2      51 RES51   0.0000
  6747 H3      31.1198  44.4203  25.3336   H        51 RES51   0.0000
  6748 C1      31.1198  44.6421  27.9706   C.2      51 RES51   0.0000
  6749 Zr1     31.1198  39.0086  31.1198   Zr       51 RES51   0.0000
  6750 O2A     31.1198  37.9613  29.1696   O.co2    51 RES51   0.0000
  6751 C2      31.1198  37.2858  26.9126   C.2      51 RES51   0.0000
  6752 C3      31.1198  37.6478  25.5779   C.2      51 RES51   0.0000
  6753 H3      31.1198  38.5657  25.3336   H        51 RES51   0.0000
  6754 C1      31.1198  38.3439  27.9706   C.2      51 RES51   0.0000
  6755 O2A     31.1198  37.9613  33.0699   O.co2    51 RES51   0.0000
  6756 C2      31.1198  37.2858  35.3269   C.2      51 RES51   0.0000
  6757 C3      31.1198  37.6478  36.6616   C.2      51 RES51   0.0000
  6758 H3      31.1198  38.5657  36.9059   H        51 RES51   0.0000
  6759 C1      31.1198  38.3439  34.2689   C.2      51 RES51   0.0000
  6760 Zr1     31.1198  41.4930  28.6354   Zr       51 RES51   0.0000
  6761 O2A     31.1198  43.4432  27.5881   O.co2    51 RES51   0.0000
  6762 C3      31.1198  47.0348  27.2746   C.2      51 RES51   0.0000
  6763 H3      31.1198  47.2792  28.1924   H        51 RES51   0.0000
  6764 O1A     30.0721  40.4453  30.0721   O.3      51 RES51   0.0000
  6765 O2A     31.1198  39.5428  27.5881   O.co2    51 RES51   0.0000
  6766 C3      31.1198  35.9512  27.2746   C.2      51 RES51   0.0000
  6767 H3      31.1198  35.7068  28.1924   H        51 RES51   0.0000
  6768 O1A     32.1674  42.5407  30.0721   O.3      51 RES51   0.0000
  6769 O2A     31.1198  39.5428  34.6514   O.co2    51 RES51   0.0000
  6770 C3      31.1198  35.9512  34.9649   C.2      51 RES51   0.0000
  6771 H3      31.1198  35.7068  34.0471   H        51 RES51   0.0000
  6772 O1A     30.0721  42.5407  32.1674   O.3      51 RES51   0.0000
  6773 O2A     31.1198  43.4432  34.6514   O.co2    51 RES51   0.0000
  6774 C3      31.1198  47.0348  34.9649   C.2      51 RES51   0.0000
  6775 H3      31.1198  47.2792  34.0471   H        51 RES51   0.0000
  6776 O1A     32.1674  40.4453  32.1674   O.3      51 RES51   0.0000
  6777 O2A     33.0699  45.0247  31.1198   O.co2    51 RES51   0.0000
  6778 C3      36.6616  45.3382  31.1198   C.2      51 RES51   0.0000
  6779 H3      36.9059  44.4203  31.1198   H        51 RES51   0.0000
  6780 O2A     29.1696  45.0247  31.1198   O.co2    51 RES51   0.0000
  6781 C3      25.5779  45.3382  31.1198   C.2      51 RES51   0.0000
  6782 H3      25.3336  44.4203  31.1198   H        51 RES51   0.0000
  6783 O2A     29.1696  37.9613  31.1198   O.co2    51 RES51   0.0000
  6784 C3      25.5779  37.6478  31.1198   C.2      51 RES51   0.0000
  6785 H3      25.3336  38.5657  31.1198   H        51 RES51   0.0000
  6786 O2A     33.0699  37.9613  31.1198   O.co2    51 RES51   0.0000
  6787 C3      36.6616  37.6478  31.1198   C.2      51 RES51   0.0000
  6788 H3      36.9059  38.5657  31.1198   H        51 RES51   0.0000
  6789 O2A     34.6514  41.4930  29.1696   O.co2    51 RES51   0.0000
  6790 C2      35.3269  41.4930  26.9126   C.2      51 RES51   0.0000
  6791 C3      34.9649  41.4930  25.5779   C.2      51 RES51   0.0000
  6792 H3      34.0471  41.4930  25.3336   H        51 RES51   0.0000
  6793 C1      34.2689  41.4930  27.9706   C.2      51 RES51   0.0000
  6794 O2A     34.6514  41.4930  33.0699   O.co2    51 RES51   0.0000
  6795 C3      34.9649  41.4930  36.6616   C.2      51 RES51   0.0000
  6796 H3      34.0471  41.4930  36.9059   H        51 RES51   0.0000
  6797 O2A     27.5881  41.4930  33.0699   O.co2    51 RES51   0.0000
  6798 C3      27.2746  41.4930  36.6616   C.2      51 RES51   0.0000
  6799 H3      28.1924  41.4930  36.9059   H        51 RES51   0.0000
  6800 O2A     27.5881  41.4930  29.1696   O.co2    51 RES51   0.0000
  6801 C2      26.9126  41.4930  26.9126   C.2      51 RES51   0.0000
  6802 C3      27.2746  41.4930  25.5779   C.2      51 RES51   0.0000
  6803 H3      28.1924  41.4930  25.3336   H        51 RES51   0.0000
  6804 C1      27.9706  41.4930  27.9706   C.2      51 RES51   0.0000
  6805 O2A     29.1696  41.4930  27.5881   O.co2    51 RES51   0.0000
  6806 C3      25.5779  41.4930  27.2746   C.2      51 RES51   0.0000
  6807 H3      25.3336  41.4930  28.1924   H        51 RES51   0.0000
  6808 O2A     33.0699  41.4930  27.5881   O.co2    51 RES51   0.0000
  6809 C3      36.6616  41.4930  27.2746   C.2      51 RES51   0.0000
  6810 H3      36.9059  41.4930  28.1924   H        51 RES51   0.0000
  6811 C3      31.1198  34.9649  26.2883   C.2      51 RES51   0.0000
  6812 C3      31.1198  34.9649  35.9512   C.2      51 RES51   0.0000
  6813 C3      31.1198  48.0211  35.9512   C.2      51 RES51   0.0000
  6814 C3      31.1198  48.0211  26.2883   C.2      51 RES51   0.0000
  6815 C3      31.1198  36.6616  37.6478   C.2      51 RES51   0.0000
  6816 C3      31.1198  46.3244  37.6478   C.2      51 RES51   0.0000
  6817 C3      31.1198  46.3244  24.5917   C.2      51 RES51   0.0000
  6818 C3      31.1198  36.6616  24.5917   C.2      51 RES51   0.0000
  6819 C3      26.2883  41.4930  24.5917   C.2      51 RES51   0.0000
  6820 C3      35.9512  41.4930  24.5917   C.2      51 RES51   0.0000
  6821 C3      35.9512  41.4930  37.6478   C.2      51 RES51   0.0000
  6822 C3      26.2883  41.4930  37.6478   C.2      51 RES51   0.0000
  6823 C3      24.5917  41.4930  35.9512   C.2      51 RES51   0.0000
  6824 C3      24.5917  41.4930  26.2883   C.2      51 RES51   0.0000
  6825 C3      37.6478  41.4930  26.2883   C.2      51 RES51   0.0000
  6826 C3      37.6478  41.4930  35.9512   C.2      51 RES51   0.0000
  6827 C3      24.5917  36.6616  31.1198   C.2      51 RES51   0.0000
  6828 C3      24.5917  46.3244  31.1198   C.2      51 RES51   0.0000
  6829 C3      37.6478  46.3244  31.1198   C.2      51 RES51   0.0000
  6830 C3      37.6478  36.6616  31.1198   C.2      51 RES51   0.0000
  6831 C3      26.2883  34.9649  31.1198   C.2      51 RES51   0.0000
  6832 C3      35.9512  34.9649  31.1198   C.2      51 RES51   0.0000
  6833 C3      35.9512  48.0211  31.1198   C.2      51 RES51   0.0000
  6834 C3      26.2883  48.0211  31.1198   C.2      51 RES51   0.0000
  6835 Zr1     10.3733  10.3733   2.4844   Zr       52 RES52   0.0000
  6836 O2A     12.3234  10.3733   3.5317   O.co2    52 RES52   0.0000
  6837 C2      14.5804  10.3733   4.2072   C.2      52 RES52   0.0000
  6838 C3      15.9151  10.3733   3.8452   C.2      52 RES52   0.0000
  6839 H3      16.1594  10.3733   2.9273   H        52 RES52   0.0000
  6840 O1A      9.3256   9.3256   1.0477   O.3      52 RES52   0.0000
  6841 C1      13.5224  10.3733   3.1491   C.2      52 RES52   0.0000
  6842 O2A      8.4231  10.3733   3.5317   O.co2    52 RES52   0.0000
  6843 C2       6.1661  10.3733   4.2072   C.2      52 RES52   0.0000
  6844 C3       4.8314  10.3733   3.8452   C.2      52 RES52   0.0000
  6845 H3       4.5871  10.3733   2.9273   H        52 RES52   0.0000
  6846 O1A     11.4209  11.4209   1.0477   O.3      52 RES52   0.0000
  6847 C1       7.2241  10.3733   3.1491   C.2      52 RES52   0.0000
  6848 Zr1     12.8576  10.3733   0.0000   Zr       52 RES52   0.0000
  6849 O2A     13.9049  12.3234   0.0000   O.co2    52 RES52   0.0000
  6850 C2      14.5804  14.5804   0.0000   C.2      52 RES52   0.0000
  6851 C3      14.2184  15.9151   0.0000   C.2      52 RES52   0.0000
  6852 H3      13.3006  16.1594   0.0000   H        52 RES52   0.0000
  6853 O1A     11.4209   9.3256  -1.0477   O.3      52 RES52   0.0000
  6854 C1      13.5224  13.5224   0.0000   C.2      52 RES52   0.0000
  6855 O2A     13.9049   8.4231   0.0000   O.co2    52 RES52   0.0000
  6856 C2      14.5804   6.1661   0.0000   C.2      52 RES52   0.0000
  6857 C3      14.2184   4.8314   0.0000   C.2      52 RES52   0.0000
  6858 H3      13.3006   4.5871   0.0000   H        52 RES52   0.0000
  6859 C1      13.5224   7.2241   0.0000   C.2      52 RES52   0.0000
  6860 Zr1      7.8889  10.3733   0.0000   Zr       52 RES52   0.0000
  6861 O2A      6.8416   8.4231   0.0000   O.co2    52 RES52   0.0000
  6862 C2       6.1661   6.1661   0.0000   C.2      52 RES52   0.0000
  6863 C3       6.5281   4.8314   0.0000   C.2      52 RES52   0.0000
  6864 H3       7.4459   4.5871   0.0000   H        52 RES52   0.0000
  6865 O1A      9.3256  11.4209  -1.0477   O.3      52 RES52   0.0000
  6866 C1       7.2241   7.2241   0.0000   C.2      52 RES52   0.0000
  6867 O2A      6.8416  12.3234   0.0000   O.co2    52 RES52   0.0000
  6868 C2       6.1661  14.5804   0.0000   C.2      52 RES52   0.0000
  6869 C3       6.5281  15.9151   0.0000   C.2      52 RES52   0.0000
  6870 H3       7.4459  16.1594   0.0000   H        52 RES52   0.0000
  6871 C1       7.2241  13.5224   0.0000   C.2      52 RES52   0.0000
  6872 Zr1     10.3733  12.8576   0.0000   Zr       52 RES52   0.0000
  6873 O2A     10.3733  13.9049   1.9502   O.co2    52 RES52   0.0000
  6874 C2      10.3733  14.5804   4.2072   C.2      52 RES52   0.0000
  6875 C3      10.3733  14.2184   5.5418   C.2      52 RES52   0.0000
  6876 H3      10.3733  13.3006   5.7862   H        52 RES52   0.0000
  6877 C1      10.3733  13.5224   3.1491   C.2      52 RES52   0.0000
  6878 O2A     10.3733  13.9049  -1.9502   O.co2    52 RES52   0.0000
  6879 C2      10.3733  14.5804  -4.2072   C.2      52 RES52   0.0000
  6880 C3      10.3733  14.2184  -5.5418   C.2      52 RES52   0.0000
  6881 H3      10.3733  13.3006  -5.7862   H        52 RES52   0.0000
  6882 C1      10.3733  13.5224  -3.1491   C.2      52 RES52   0.0000
  6883 Zr1     10.3733   7.8889   0.0000   Zr       52 RES52   0.0000
  6884 O2A     10.3733   6.8416  -1.9502   O.co2    52 RES52   0.0000
  6885 C2      10.3733   6.1661  -4.2072   C.2      52 RES52   0.0000
  6886 C3      10.3733   6.5281  -5.5418   C.2      52 RES52   0.0000
  6887 H3      10.3733   7.4459  -5.7862   H        52 RES52   0.0000
  6888 C1      10.3733   7.2241  -3.1491   C.2      52 RES52   0.0000
  6889 O2A     10.3733   6.8416   1.9502   O.co2    52 RES52   0.0000
  6890 C2      10.3733   6.1661   4.2072   C.2      52 RES52   0.0000
  6891 C3      10.3733   6.5281   5.5418   C.2      52 RES52   0.0000
  6892 H3      10.3733   7.4459   5.7862   H        52 RES52   0.0000
  6893 C1      10.3733   7.2241   3.1491   C.2      52 RES52   0.0000
  6894 Zr1     10.3733  10.3733  -2.4844   Zr       52 RES52   0.0000
  6895 O2A     10.3733  12.3234  -3.5317   O.co2    52 RES52   0.0000
  6896 C3      10.3733  15.9151  -3.8452   C.2      52 RES52   0.0000
  6897 H3      10.3733  16.1594  -2.9273   H        52 RES52   0.0000
  6898 O1A      9.3256   9.3256  -1.0477   O.3      52 RES52   0.0000
  6899 O2A     10.3733   8.4231  -3.5317   O.co2    52 RES52   0.0000
  6900 C3      10.3733   4.8314  -3.8452   C.2      52 RES52   0.0000
  6901 H3      10.3733   4.5871  -2.9273   H        52 RES52   0.0000
  6902 O1A     11.4209  11.4209  -1.0477   O.3      52 RES52   0.0000
  6903 O2A     10.3733   8.4231   3.5317   O.co2    52 RES52   0.0000
  6904 C3      10.3733   4.8314   3.8452   C.2      52 RES52   0.0000
  6905 H3      10.3733   4.5871   2.9273   H        52 RES52   0.0000
  6906 O1A      9.3256  11.4209   1.0477   O.3      52 RES52   0.0000
  6907 O2A     10.3733  12.3234   3.5317   O.co2    52 RES52   0.0000
  6908 C3      10.3733  15.9151   3.8452   C.2      52 RES52   0.0000
  6909 H3      10.3733  16.1594   2.9273   H        52 RES52   0.0000
  6910 O1A     11.4209   9.3256   1.0477   O.3      52 RES52   0.0000
  6911 O2A     12.3234  13.9049   0.0000   O.co2    52 RES52   0.0000
  6912 C3      15.9151  14.2184   0.0000   C.2      52 RES52   0.0000
  6913 H3      16.1594  13.3006   0.0000   H        52 RES52   0.0000
  6914 O2A      8.4231  13.9049   0.0000   O.co2    52 RES52   0.0000
  6915 C3       4.8314  14.2184   0.0000   C.2      52 RES52   0.0000
  6916 H3       4.5871  13.3006   0.0000   H        52 RES52   0.0000
  6917 O2A      8.4231   6.8416   0.0000   O.co2    52 RES52   0.0000
  6918 C3       4.8314   6.5281   0.0000   C.2      52 RES52   0.0000
  6919 H3       4.5871   7.4459   0.0000   H        52 RES52   0.0000
  6920 O2A     12.3234   6.8416   0.0000   O.co2    52 RES52   0.0000
  6921 C3      15.9151   6.5281   0.0000   C.2      52 RES52   0.0000
  6922 H3      16.1594   7.4459   0.0000   H        52 RES52   0.0000
  6923 O2A     13.9049  10.3733  -1.9502   O.co2    52 RES52   0.0000
  6924 C2      14.5804  10.3733  -4.2072   C.2      52 RES52   0.0000
  6925 C3      14.2184  10.3733  -5.5418   C.2      52 RES52   0.0000
  6926 H3      13.3006  10.3733  -5.7862   H        52 RES52   0.0000
  6927 C1      13.5224  10.3733  -3.1491   C.2      52 RES52   0.0000
  6928 O2A     13.9049  10.3733   1.9502   O.co2    52 RES52   0.0000
  6929 C3      14.2184  10.3733   5.5418   C.2      52 RES52   0.0000
  6930 H3      13.3006  10.3733   5.7862   H        52 RES52   0.0000
  6931 O2A      6.8416  10.3733   1.9502   O.co2    52 RES52   0.0000
  6932 C3       6.5281  10.3733   5.5418   C.2      52 RES52   0.0000
  6933 H3       7.4459  10.3733   5.7862   H        52 RES52   0.0000
  6934 O2A      6.8416  10.3733  -1.9502   O.co2    52 RES52   0.0000
  6935 C2       6.1661  10.3733  -4.2072   C.2      52 RES52   0.0000
  6936 C3       6.5281  10.3733  -5.5418   C.2      52 RES52   0.0000
  6937 H3       7.4459  10.3733  -5.7862   H        52 RES52   0.0000
  6938 C1       7.2241  10.3733  -3.1491   C.2      52 RES52   0.0000
  6939 O2A      8.4231  10.3733  -3.5317   O.co2    52 RES52   0.0000
  6940 C3       4.8314  10.3733  -3.8452   C.2      52 RES52   0.0000
  6941 H3       4.5871  10.3733  -2.9273   H        52 RES52   0.0000
  6942 O2A     12.3234  10.3733  -3.5317   O.co2    52 RES52   0.0000
  6943 C3      15.9151  10.3733  -3.8452   C.2      52 RES52   0.0000
  6944 H3      16.1594  10.3733  -2.9273   H        52 RES52   0.0000
  6945 C3      10.3733   3.8452  -4.8314   C.2      52 RES52   0.0000
  6946 C3      10.3733   3.8452   4.8314   C.2      52 RES52   0.0000
  6947 C3      10.3733  16.9013   4.8314   C.2      52 RES52   0.0000
  6948 C3      10.3733  16.9013  -4.8314   C.2      52 RES52   0.0000
  6949 C3      10.3733   5.5418   6.5281   C.2      52 RES52   0.0000
  6950 C3      10.3733  15.2047   6.5281   C.2      52 RES52   0.0000
  6951 C3      10.3733  15.2047  -6.5281   C.2      52 RES52   0.0000
  6952 C3      10.3733   5.5418  -6.5281   C.2      52 RES52   0.0000
  6953 C3       5.5418  10.3733  -6.5281   C.2      52 RES52   0.0000
  6954 C3      15.2047  10.3733  -6.5281   C.2      52 RES52   0.0000
  6955 C3      15.2047  10.3733   6.5281   C.2      52 RES52   0.0000
  6956 C3       5.5418  10.3733   6.5281   C.2      52 RES52   0.0000
  6957 C3       3.8452  10.3733   4.8314   C.2      52 RES52   0.0000
  6958 C3       3.8452  10.3733  -4.8314   C.2      52 RES52   0.0000
  6959 C3      16.9013  10.3733  -4.8314   C.2      52 RES52   0.0000
  6960 C3      16.9013  10.3733   4.8314   C.2      52 RES52   0.0000
  6961 C3       3.8452   5.5418   0.0000   C.2      52 RES52   0.0000
  6962 C3       3.8452  15.2047   0.0000   C.2      52 RES52   0.0000
  6963 C3      16.9013  15.2047   0.0000   C.2      52 RES52   0.0000
  6964 C3      16.9013   5.5418   0.0000   C.2      52 RES52   0.0000
  6965 C3       5.5418   3.8452   0.0000   C.2      52 RES52   0.0000
  6966 C3      15.2047   3.8452   0.0000   C.2      52 RES52   0.0000
  6967 C3      15.2047  16.9013   0.0000   C.2      52 RES52   0.0000
  6968 C3       5.5418  16.9013   0.0000   C.2      52 RES52   0.0000
  6969 Zr1     10.3733  10.3733  23.2309   Zr       53 RES53   0.0000
  6970 O2A     12.3234  10.3733  24.2782   O.co2    53 RES53   0.0000
  6971 C2      14.5804  10.3733  24.9537   C.2      53 RES53   0.0000
  6972 C3      15.9151  10.3733  24.5917   C.2      53 RES53   0.0000
  6973 H3      16.1594  10.3733  23.6738   H        53 RES53   0.0000
  6974 O1A      9.3256   9.3256  21.7942   O.3      53 RES53   0.0000
  6975 C1      13.5224  10.3733  23.8956   C.2      53 RES53   0.0000
  6976 O2A      8.4231  10.3733  24.2782   O.co2    53 RES53   0.0000
  6977 C2       6.1661  10.3733  24.9537   C.2      53 RES53   0.0000
  6978 C3       4.8314  10.3733  24.5917   C.2      53 RES53   0.0000
  6979 H3       4.5871  10.3733  23.6738   H        53 RES53   0.0000
  6980 O1A     11.4209  11.4209  21.7942   O.3      53 RES53   0.0000
  6981 C1       7.2241  10.3733  23.8956   C.2      53 RES53   0.0000
  6982 Zr1     12.8576  10.3733  20.7465   Zr       53 RES53   0.0000
  6983 O2A     13.9049  12.3234  20.7465   O.co2    53 RES53   0.0000
  6984 C2      14.5804  14.5804  20.7465   C.2      53 RES53   0.0000
  6985 C3      14.2184  15.9151  20.7465   C.2      53 RES53   0.0000
  6986 H3      13.3006  16.1594  20.7465   H        53 RES53   0.0000
  6987 O1A     11.4209   9.3256  19.6988   O.3      53 RES53   0.0000
  6988 C1      13.5224  13.5224  20.7465   C.2      53 RES53   0.0000
  6989 O2A     13.9049   8.4231  20.7465   O.co2    53 RES53   0.0000
  6990 C2      14.5804   6.1661  20.7465   C.2      53 RES53   0.0000
  6991 C3      14.2184   4.8314  20.7465   C.2      53 RES53   0.0000
  6992 H3      13.3006   4.5871  20.7465   H        53 RES53   0.0000
  6993 C1      13.5224   7.2241  20.7465   C.2      53 RES53   0.0000
  6994 Zr1      7.8889  10.3733  20.7465   Zr       53 RES53   0.0000
  6995 O2A      6.8416   8.4231  20.7465   O.co2    53 RES53   0.0000
  6996 C2       6.1661   6.1661  20.7465   C.2      53 RES53   0.0000
  6997 C3       6.5281   4.8314  20.7465   C.2      53 RES53   0.0000
  6998 H3       7.4459   4.5871  20.7465   H        53 RES53   0.0000
  6999 O1A      9.3256  11.4209  19.6988   O.3      53 RES53   0.0000
  7000 C1       7.2241   7.2241  20.7465   C.2      53 RES53   0.0000
  7001 O2A      6.8416  12.3234  20.7465   O.co2    53 RES53   0.0000
  7002 C2       6.1661  14.5804  20.7465   C.2      53 RES53   0.0000
  7003 C3       6.5281  15.9151  20.7465   C.2      53 RES53   0.0000
  7004 H3       7.4459  16.1594  20.7465   H        53 RES53   0.0000
  7005 C1       7.2241  13.5224  20.7465   C.2      53 RES53   0.0000
  7006 Zr1     10.3733  12.8576  20.7465   Zr       53 RES53   0.0000
  7007 O2A     10.3733  13.9049  22.6967   O.co2    53 RES53   0.0000
  7008 C2      10.3733  14.5804  24.9537   C.2      53 RES53   0.0000
  7009 C3      10.3733  14.2184  26.2883   C.2      53 RES53   0.0000
  7010 H3      10.3733  13.3006  26.5327   H        53 RES53   0.0000
  7011 C1      10.3733  13.5224  23.8956   C.2      53 RES53   0.0000
  7012 O2A     10.3733  13.9049  18.7963   O.co2    53 RES53   0.0000
  7013 C2      10.3733  14.5804  16.5393   C.2      53 RES53   0.0000
  7014 C3      10.3733  14.2184  15.2047   C.2      53 RES53   0.0000
  7015 H3      10.3733  13.3006  14.9603   H        53 RES53   0.0000
  7016 C1      10.3733  13.5224  17.5974   C.2      53 RES53   0.0000
  7017 Zr1     10.3733   7.8889  20.7465   Zr       53 RES53   0.0000
  7018 O2A     10.3733   6.8416  18.7963   O.co2    53 RES53   0.0000
  7019 C2      10.3733   6.1661  16.5393   C.2      53 RES53   0.0000
  7020 C3      10.3733   6.5281  15.2047   C.2      53 RES53   0.0000
  7021 H3      10.3733   7.4459  14.9603   H        53 RES53   0.0000
  7022 C1      10.3733   7.2241  17.5974   C.2      53 RES53   0.0000
  7023 O2A     10.3733   6.8416  22.6967   O.co2    53 RES53   0.0000
  7024 C2      10.3733   6.1661  24.9537   C.2      53 RES53   0.0000
  7025 C3      10.3733   6.5281  26.2883   C.2      53 RES53   0.0000
  7026 H3      10.3733   7.4459  26.5327   H        53 RES53   0.0000
  7027 C1      10.3733   7.2241  23.8956   C.2      53 RES53   0.0000
  7028 Zr1     10.3733  10.3733  18.2621   Zr       53 RES53   0.0000
  7029 O2A     10.3733  12.3234  17.2148   O.co2    53 RES53   0.0000
  7030 C3      10.3733  15.9151  16.9013   C.2      53 RES53   0.0000
  7031 H3      10.3733  16.1594  17.8192   H        53 RES53   0.0000
  7032 O1A      9.3256   9.3256  19.6988   O.3      53 RES53   0.0000
  7033 O2A     10.3733   8.4231  17.2148   O.co2    53 RES53   0.0000
  7034 C3      10.3733   4.8314  16.9013   C.2      53 RES53   0.0000
  7035 H3      10.3733   4.5871  17.8192   H        53 RES53   0.0000
  7036 O1A     11.4209  11.4209  19.6988   O.3      53 RES53   0.0000
  7037 O2A     10.3733   8.4231  24.2782   O.co2    53 RES53   0.0000
  7038 C3      10.3733   4.8314  24.5917   C.2      53 RES53   0.0000
  7039 H3      10.3733   4.5871  23.6738   H        53 RES53   0.0000
  7040 O1A      9.3256  11.4209  21.7942   O.3      53 RES53   0.0000
  7041 O2A     10.3733  12.3234  24.2782   O.co2    53 RES53   0.0000
  7042 C3      10.3733  15.9151  24.5917   C.2      53 RES53   0.0000
  7043 H3      10.3733  16.1594  23.6738   H        53 RES53   0.0000
  7044 O1A     11.4209   9.3256  21.7942   O.3      53 RES53   0.0000
  7045 O2A     12.3234  13.9049  20.7465   O.co2    53 RES53   0.0000
  7046 C3      15.9151  14.2184  20.7465   C.2      53 RES53   0.0000
  7047 H3      16.1594  13.3006  20.7465   H        53 RES53   0.0000
  7048 O2A      8.4231  13.9049  20.7465   O.co2    53 RES53   0.0000
  7049 C3       4.8314  14.2184  20.7465   C.2      53 RES53   0.0000
  7050 H3       4.5871  13.3006  20.7465   H        53 RES53   0.0000
  7051 O2A      8.4231   6.8416  20.7465   O.co2    53 RES53   0.0000
  7052 C3       4.8314   6.5281  20.7465   C.2      53 RES53   0.0000
  7053 H3       4.5871   7.4459  20.7465   H        53 RES53   0.0000
  7054 O2A     12.3234   6.8416  20.7465   O.co2    53 RES53   0.0000
  7055 C3      15.9151   6.5281  20.7465   C.2      53 RES53   0.0000
  7056 H3      16.1594   7.4459  20.7465   H        53 RES53   0.0000
  7057 O2A     13.9049  10.3733  18.7963   O.co2    53 RES53   0.0000
  7058 C2      14.5804  10.3733  16.5393   C.2      53 RES53   0.0000
  7059 C3      14.2184  10.3733  15.2047   C.2      53 RES53   0.0000
  7060 H3      13.3006  10.3733  14.9603   H        53 RES53   0.0000
  7061 C1      13.5224  10.3733  17.5974   C.2      53 RES53   0.0000
  7062 O2A     13.9049  10.3733  22.6967   O.co2    53 RES53   0.0000
  7063 C3      14.2184  10.3733  26.2883   C.2      53 RES53   0.0000
  7064 H3      13.3006  10.3733  26.5327   H        53 RES53   0.0000
  7065 O2A      6.8416  10.3733  22.6967   O.co2    53 RES53   0.0000
  7066 C3       6.5281  10.3733  26.2883   C.2      53 RES53   0.0000
  7067 H3       7.4459  10.3733  26.5327   H        53 RES53   0.0000
  7068 O2A      6.8416  10.3733  18.7963   O.co2    53 RES53   0.0000
  7069 C2       6.1661  10.3733  16.5393   C.2      53 RES53   0.0000
  7070 C3       6.5281  10.3733  15.2047   C.2      53 RES53   0.0000
  7071 H3       7.4459  10.3733  14.9603   H        53 RES53   0.0000
  7072 C1       7.2241  10.3733  17.5974   C.2      53 RES53   0.0000
  7073 O2A      8.4231  10.3733  17.2148   O.co2    53 RES53   0.0000
  7074 C3       4.8314  10.3733  16.9013   C.2      53 RES53   0.0000
  7075 H3       4.5871  10.3733  17.8192   H        53 RES53   0.0000
  7076 O2A     12.3234  10.3733  17.2148   O.co2    53 RES53   0.0000
  7077 C3      15.9151  10.3733  16.9013   C.2      53 RES53   0.0000
  7078 H3      16.1594  10.3733  17.8192   H        53 RES53   0.0000
  7079 C3      10.3733   3.8452  15.9151   C.2      53 RES53   0.0000
  7080 C3      10.3733   3.8452  25.5779   C.2      53 RES53   0.0000
  7081 C3      10.3733  16.9013  25.5779   C.2      53 RES53   0.0000
  7082 C3      10.3733  16.9013  15.9151   C.2      53 RES53   0.0000
  7083 C3      10.3733   5.5418  27.2746   C.2      53 RES53   0.0000
  7084 C3      10.3733  15.2047  27.2746   C.2      53 RES53   0.0000
  7085 C3      10.3733  15.2047  14.2184   C.2      53 RES53   0.0000
  7086 C3      10.3733   5.5418  14.2184   C.2      53 RES53   0.0000
  7087 C3       5.5418  10.3733  14.2184   C.2      53 RES53   0.0000
  7088 C3      15.2047  10.3733  14.2184   C.2      53 RES53   0.0000
  7089 C3      15.2047  10.3733  27.2746   C.2      53 RES53   0.0000
  7090 C3       5.5418  10.3733  27.2746   C.2      53 RES53   0.0000
  7091 C3       3.8452  10.3733  25.5779   C.2      53 RES53   0.0000
  7092 C3       3.8452  10.3733  15.9151   C.2      53 RES53   0.0000
  7093 C3      16.9013  10.3733  15.9151   C.2      53 RES53   0.0000
  7094 C3      16.9013  10.3733  25.5779   C.2      53 RES53   0.0000
  7095 C3       3.8452   5.5418  20.7465   C.2      53 RES53   0.0000
  7096 C3       3.8452  15.2047  20.7465   C.2      53 RES53   0.0000
  7097 C3      16.9013  15.2047  20.7465   C.2      53 RES53   0.0000
  7098 C3      16.9013   5.5418  20.7465   C.2      53 RES53   0.0000
  7099 C3       5.5418   3.8452  20.7465   C.2      53 RES53   0.0000
  7100 C3      15.2047   3.8452  20.7465   C.2      53 RES53   0.0000
  7101 C3      15.2047  16.9013  20.7465   C.2      53 RES53   0.0000
  7102 C3       5.5418  16.9013  20.7465   C.2      53 RES53   0.0000
  7103 Zr1     10.3733  10.3733  43.9774   Zr       54 RES54   0.0000
  7104 O2A     12.3234  10.3733  45.0247   O.co2    54 RES54   0.0000
  7105 C2      14.5804  10.3733  45.7002   C.2      54 RES54   0.0000
  7106 C3      15.9151  10.3733  45.3382   C.2      54 RES54   0.0000
  7107 H3      16.1594  10.3733  44.4203   H        54 RES54   0.0000
  7108 O1A      9.3256   9.3256  42.5407   O.3      54 RES54   0.0000
  7109 C1      13.5224  10.3733  44.6421   C.2      54 RES54   0.0000
  7110 O2A      8.4231  10.3733  45.0247   O.co2    54 RES54   0.0000
  7111 C2       6.1661  10.3733  45.7002   C.2      54 RES54   0.0000
  7112 C3       4.8314  10.3733  45.3382   C.2      54 RES54   0.0000
  7113 H3       4.5871  10.3733  44.4203   H        54 RES54   0.0000
  7114 O1A     11.4209  11.4209  42.5407   O.3      54 RES54   0.0000
  7115 C1       7.2241  10.3733  44.6421   C.2      54 RES54   0.0000
  7116 Zr1     12.8576  10.3733  41.4930   Zr       54 RES54   0.0000
  7117 O2A     13.9049  12.3234  41.4930   O.co2    54 RES54   0.0000
  7118 C2      14.5804  14.5804  41.4930   C.2      54 RES54   0.0000
  7119 C3      14.2184  15.9151  41.4930   C.2      54 RES54   0.0000
  7120 H3      13.3006  16.1594  41.4930   H        54 RES54   0.0000
  7121 O1A     11.4209   9.3256  40.4453   O.3      54 RES54   0.0000
  7122 C1      13.5224  13.5224  41.4930   C.2      54 RES54   0.0000
  7123 O2A     13.9049   8.4231  41.4930   O.co2    54 RES54   0.0000
  7124 C2      14.5804   6.1661  41.4930   C.2      54 RES54   0.0000
  7125 C3      14.2184   4.8314  41.4930   C.2      54 RES54   0.0000
  7126 H3      13.3006   4.5871  41.4930   H        54 RES54   0.0000
  7127 C1      13.5224   7.2241  41.4930   C.2      54 RES54   0.0000
  7128 Zr1      7.8889  10.3733  41.4930   Zr       54 RES54   0.0000
  7129 O2A      6.8416   8.4231  41.4930   O.co2    54 RES54   0.0000
  7130 C2       6.1661   6.1661  41.4930   C.2      54 RES54   0.0000
  7131 C3       6.5281   4.8314  41.4930   C.2      54 RES54   0.0000
  7132 H3       7.4459   4.5871  41.4930   H        54 RES54   0.0000
  7133 O1A      9.3256  11.4209  40.4453   O.3      54 RES54   0.0000
  7134 C1       7.2241   7.2241  41.4930   C.2      54 RES54   0.0000
  7135 O2A      6.8416  12.3234  41.4930   O.co2    54 RES54   0.0000
  7136 C2       6.1661  14.5804  41.4930   C.2      54 RES54   0.0000
  7137 C3       6.5281  15.9151  41.4930   C.2      54 RES54   0.0000
  7138 H3       7.4459  16.1594  41.4930   H        54 RES54   0.0000
  7139 C1       7.2241  13.5224  41.4930   C.2      54 RES54   0.0000
  7140 Zr1     10.3733  12.8576  41.4930   Zr       54 RES54   0.0000
  7141 O2A     10.3733  13.9049  43.4432   O.co2    54 RES54   0.0000
  7142 C2      10.3733  14.5804  45.7002   C.2      54 RES54   0.0000
  7143 C3      10.3733  14.2184  47.0348   C.2      54 RES54   0.0000
  7144 H3      10.3733  13.3006  47.2792   H        54 RES54   0.0000
  7145 C1      10.3733  13.5224  44.6421   C.2      54 RES54   0.0000
  7146 O2A     10.3733  13.9049  39.5428   O.co2    54 RES54   0.0000
  7147 C2      10.3733  14.5804  37.2858   C.2      54 RES54   0.0000
  7148 C3      10.3733  14.2184  35.9512   C.2      54 RES54   0.0000
  7149 H3      10.3733  13.3006  35.7068   H        54 RES54   0.0000
  7150 C1      10.3733  13.5224  38.3439   C.2      54 RES54   0.0000
  7151 Zr1     10.3733   7.8889  41.4930   Zr       54 RES54   0.0000
  7152 O2A     10.3733   6.8416  39.5428   O.co2    54 RES54   0.0000
  7153 C2      10.3733   6.1661  37.2858   C.2      54 RES54   0.0000
  7154 C3      10.3733   6.5281  35.9512   C.2      54 RES54   0.0000
  7155 H3      10.3733   7.4459  35.7068   H        54 RES54   0.0000
  7156 C1      10.3733   7.2241  38.3439   C.2      54 RES54   0.0000
  7157 O2A     10.3733   6.8416  43.4432   O.co2    54 RES54   0.0000
  7158 C2      10.3733   6.1661  45.7002   C.2      54 RES54   0.0000
  7159 C3      10.3733   6.5281  47.0348   C.2      54 RES54   0.0000
  7160 H3      10.3733   7.4459  47.2792   H        54 RES54   0.0000
  7161 C1      10.3733   7.2241  44.6421   C.2      54 RES54   0.0000
  7162 Zr1     10.3733  10.3733  39.0086   Zr       54 RES54   0.0000
  7163 O2A     10.3733  12.3234  37.9613   O.co2    54 RES54   0.0000
  7164 C3      10.3733  15.9151  37.6478   C.2      54 RES54   0.0000
  7165 H3      10.3733  16.1594  38.5657   H        54 RES54   0.0000
  7166 O1A      9.3256   9.3256  40.4453   O.3      54 RES54   0.0000
  7167 O2A     10.3733   8.4231  37.9613   O.co2    54 RES54   0.0000
  7168 C3      10.3733   4.8314  37.6478   C.2      54 RES54   0.0000
  7169 H3      10.3733   4.5871  38.5657   H        54 RES54   0.0000
  7170 O1A     11.4209  11.4209  40.4453   O.3      54 RES54   0.0000
  7171 O2A     10.3733   8.4231  45.0247   O.co2    54 RES54   0.0000
  7172 C3      10.3733   4.8314  45.3382   C.2      54 RES54   0.0000
  7173 H3      10.3733   4.5871  44.4203   H        54 RES54   0.0000
  7174 O1A      9.3256  11.4209  42.5407   O.3      54 RES54   0.0000
  7175 O2A     10.3733  12.3234  45.0247   O.co2    54 RES54   0.0000
  7176 C3      10.3733  15.9151  45.3382   C.2      54 RES54   0.0000
  7177 H3      10.3733  16.1594  44.4203   H        54 RES54   0.0000
  7178 O1A     11.4209   9.3256  42.5407   O.3      54 RES54   0.0000
  7179 O2A     12.3234  13.9049  41.4930   O.co2    54 RES54   0.0000
  7180 C3      15.9151  14.2184  41.4930   C.2      54 RES54   0.0000
  7181 H3      16.1594  13.3006  41.4930   H        54 RES54   0.0000
  7182 O2A      8.4231  13.9049  41.4930   O.co2    54 RES54   0.0000
  7183 C3       4.8314  14.2184  41.4930   C.2      54 RES54   0.0000
  7184 H3       4.5871  13.3006  41.4930   H        54 RES54   0.0000
  7185 O2A      8.4231   6.8416  41.4930   O.co2    54 RES54   0.0000
  7186 C3       4.8314   6.5281  41.4930   C.2      54 RES54   0.0000
  7187 H3       4.5871   7.4459  41.4930   H        54 RES54   0.0000
  7188 O2A     12.3234   6.8416  41.4930   O.co2    54 RES54   0.0000
  7189 C3      15.9151   6.5281  41.4930   C.2      54 RES54   0.0000
  7190 H3      16.1594   7.4459  41.4930   H        54 RES54   0.0000
  7191 O2A     13.9049  10.3733  39.5428   O.co2    54 RES54   0.0000
  7192 C2      14.5804  10.3733  37.2858   C.2      54 RES54   0.0000
  7193 C3      14.2184  10.3733  35.9512   C.2      54 RES54   0.0000
  7194 H3      13.3006  10.3733  35.7068   H        54 RES54   0.0000
  7195 C1      13.5224  10.3733  38.3439   C.2      54 RES54   0.0000
  7196 O2A     13.9049  10.3733  43.4432   O.co2    54 RES54   0.0000
  7197 C3      14.2184  10.3733  47.0348   C.2      54 RES54   0.0000
  7198 H3      13.3006  10.3733  47.2792   H        54 RES54   0.0000
  7199 O2A      6.8416  10.3733  43.4432   O.co2    54 RES54   0.0000
  7200 C3       6.5281  10.3733  47.0348   C.2      54 RES54   0.0000
  7201 H3       7.4459  10.3733  47.2792   H        54 RES54   0.0000
  7202 O2A      6.8416  10.3733  39.5428   O.co2    54 RES54   0.0000
  7203 C2       6.1661  10.3733  37.2858   C.2      54 RES54   0.0000
  7204 C3       6.5281  10.3733  35.9512   C.2      54 RES54   0.0000
  7205 H3       7.4459  10.3733  35.7068   H        54 RES54   0.0000
  7206 C1       7.2241  10.3733  38.3439   C.2      54 RES54   0.0000
  7207 O2A      8.4231  10.3733  37.9613   O.co2    54 RES54   0.0000
  7208 C3       4.8314  10.3733  37.6478   C.2      54 RES54   0.0000
  7209 H3       4.5871  10.3733  38.5657   H        54 RES54   0.0000
  7210 O2A     12.3234  10.3733  37.9613   O.co2    54 RES54   0.0000
  7211 C3      15.9151  10.3733  37.6478   C.2      54 RES54   0.0000
  7212 H3      16.1594  10.3733  38.5657   H        54 RES54   0.0000
  7213 C3      10.3733   3.8452  36.6616   C.2      54 RES54   0.0000
  7214 C3      10.3733   3.8452  46.3244   C.2      54 RES54   0.0000
  7215 C3      10.3733  16.9013  46.3244   C.2      54 RES54   0.0000
  7216 C3      10.3733  16.9013  36.6616   C.2      54 RES54   0.0000
  7217 C3      10.3733   5.5418  48.0211   C.2      54 RES54   0.0000
  7218 C3      10.3733  15.2047  48.0211   C.2      54 RES54   0.0000
  7219 C3      10.3733  15.2047  34.9649   C.2      54 RES54   0.0000
  7220 C3      10.3733   5.5418  34.9649   C.2      54 RES54   0.0000
  7221 C3       5.5418  10.3733  34.9649   C.2      54 RES54   0.0000
  7222 C3      15.2047  10.3733  34.9649   C.2      54 RES54   0.0000
  7223 C3      15.2047  10.3733  48.0211   C.2      54 RES54   0.0000
  7224 C3       5.5418  10.3733  48.0211   C.2      54 RES54   0.0000
  7225 C3       3.8452  10.3733  46.3244   C.2      54 RES54   0.0000
  7226 C3       3.8452  10.3733  36.6616   C.2      54 RES54   0.0000
  7227 C3      16.9013  10.3733  36.6616   C.2      54 RES54   0.0000
  7228 C3      16.9013  10.3733  46.3244   C.2      54 RES54   0.0000
  7229 C3       3.8452   5.5418  41.4930   C.2      54 RES54   0.0000
  7230 C3       3.8452  15.2047  41.4930   C.2      54 RES54   0.0000
  7231 C3      16.9013  15.2047  41.4930   C.2      54 RES54   0.0000
  7232 C3      16.9013   5.5418  41.4930   C.2      54 RES54   0.0000
  7233 C3       5.5418   3.8452  41.4930   C.2      54 RES54   0.0000
  7234 C3      15.2047   3.8452  41.4930   C.2      54 RES54   0.0000
  7235 C3      15.2047  16.9013  41.4930   C.2      54 RES54   0.0000
  7236 C3       5.5418  16.9013  41.4930   C.2      54 RES54   0.0000
  7237 Zr1     10.3733  31.1198   2.4844   Zr       55 RES55   0.0000
  7238 O2A     12.3234  31.1198   3.5317   O.co2    55 RES55   0.0000
  7239 C2      14.5804  31.1198   4.2072   C.2      55 RES55   0.0000
  7240 C3      15.9151  31.1198   3.8452   C.2      55 RES55   0.0000
  7241 H3      16.1594  31.1198   2.9273   H        55 RES55   0.0000
  7242 O1A      9.3256  30.0721   1.0477   O.3      55 RES55   0.0000
  7243 C1      13.5224  31.1198   3.1491   C.2      55 RES55   0.0000
  7244 O2A      8.4231  31.1198   3.5317   O.co2    55 RES55   0.0000
  7245 C2       6.1661  31.1198   4.2072   C.2      55 RES55   0.0000
  7246 C3       4.8314  31.1198   3.8452   C.2      55 RES55   0.0000
  7247 H3       4.5871  31.1198   2.9273   H        55 RES55   0.0000
  7248 O1A     11.4209  32.1674   1.0477   O.3      55 RES55   0.0000
  7249 C1       7.2241  31.1198   3.1491   C.2      55 RES55   0.0000
  7250 Zr1     12.8576  31.1198   0.0000   Zr       55 RES55   0.0000
  7251 O2A     13.9049  33.0699   0.0000   O.co2    55 RES55   0.0000
  7252 C2      14.5804  35.3269   0.0000   C.2      55 RES55   0.0000
  7253 C3      14.2184  36.6616   0.0000   C.2      55 RES55   0.0000
  7254 H3      13.3006  36.9059   0.0000   H        55 RES55   0.0000
  7255 O1A     11.4209  30.0721  -1.0477   O.3      55 RES55   0.0000
  7256 C1      13.5224  34.2689   0.0000   C.2      55 RES55   0.0000
  7257 O2A     13.9049  29.1696   0.0000   O.co2    55 RES55   0.0000
  7258 C2      14.5804  26.9126   0.0000   C.2      55 RES55   0.0000
  7259 C3      14.2184  25.5779   0.0000   C.2      55 RES55   0.0000
  7260 H3      13.3006  25.3336   0.0000   H        55 RES55   0.0000
  7261 C1      13.5224  27.9706   0.0000   C.2      55 RES55   0.0000
  7262 Zr1      7.8889  31.1198   0.0000   Zr       55 RES55   0.0000
  7263 O2A      6.8416  29.1696   0.0000   O.co2    55 RES55   0.0000
  7264 C2       6.1661  26.9126   0.0000   C.2      55 RES55   0.0000
  7265 C3       6.5281  25.5779   0.0000   C.2      55 RES55   0.0000
  7266 H3       7.4459  25.3336   0.0000   H        55 RES55   0.0000
  7267 O1A      9.3256  32.1674  -1.0477   O.3      55 RES55   0.0000
  7268 C1       7.2241  27.9706   0.0000   C.2      55 RES55   0.0000
  7269 O2A      6.8416  33.0699   0.0000   O.co2    55 RES55   0.0000
  7270 C2       6.1661  35.3269   0.0000   C.2      55 RES55   0.0000
  7271 C3       6.5281  36.6616   0.0000   C.2      55 RES55   0.0000
  7272 H3       7.4459  36.9059   0.0000   H        55 RES55   0.0000
  7273 C1       7.2241  34.2689   0.0000   C.2      55 RES55   0.0000
  7274 Zr1     10.3733  33.6041   0.0000   Zr       55 RES55   0.0000
  7275 O2A     10.3733  34.6514   1.9502   O.co2    55 RES55   0.0000
  7276 C2      10.3733  35.3269   4.2072   C.2      55 RES55   0.0000
  7277 C3      10.3733  34.9649   5.5418   C.2      55 RES55   0.0000
  7278 H3      10.3733  34.0471   5.7862   H        55 RES55   0.0000
  7279 C1      10.3733  34.2689   3.1491   C.2      55 RES55   0.0000
  7280 O2A     10.3733  34.6514  -1.9502   O.co2    55 RES55   0.0000
  7281 C2      10.3733  35.3269  -4.2072   C.2      55 RES55   0.0000
  7282 C3      10.3733  34.9649  -5.5418   C.2      55 RES55   0.0000
  7283 H3      10.3733  34.0471  -5.7862   H        55 RES55   0.0000
  7284 C1      10.3733  34.2689  -3.1491   C.2      55 RES55   0.0000
  7285 Zr1     10.3733  28.6354   0.0000   Zr       55 RES55   0.0000
  7286 O2A     10.3733  27.5881  -1.9502   O.co2    55 RES55   0.0000
  7287 C2      10.3733  26.9126  -4.2072   C.2      55 RES55   0.0000
  7288 C3      10.3733  27.2746  -5.5418   C.2      55 RES55   0.0000
  7289 H3      10.3733  28.1924  -5.7862   H        55 RES55   0.0000
  7290 C1      10.3733  27.9706  -3.1491   C.2      55 RES55   0.0000
  7291 O2A     10.3733  27.5881   1.9502   O.co2    55 RES55   0.0000
  7292 C2      10.3733  26.9126   4.2072   C.2      55 RES55   0.0000
  7293 C3      10.3733  27.2746   5.5418   C.2      55 RES55   0.0000
  7294 H3      10.3733  28.1924   5.7862   H        55 RES55   0.0000
  7295 C1      10.3733  27.9706   3.1491   C.2      55 RES55   0.0000
  7296 Zr1     10.3733  31.1198  -2.4844   Zr       55 RES55   0.0000
  7297 O2A     10.3733  33.0699  -3.5317   O.co2    55 RES55   0.0000
  7298 C3      10.3733  36.6616  -3.8452   C.2      55 RES55   0.0000
  7299 H3      10.3733  36.9059  -2.9273   H        55 RES55   0.0000
  7300 O1A      9.3256  30.0721  -1.0477   O.3      55 RES55   0.0000
  7301 O2A     10.3733  29.1696  -3.5317   O.co2    55 RES55   0.0000
  7302 C3      10.3733  25.5779  -3.8452   C.2      55 RES55   0.0000
  7303 H3      10.3733  25.3336  -2.9273   H        55 RES55   0.0000
  7304 O1A     11.4209  32.1674  -1.0477   O.3      55 RES55   0.0000
  7305 O2A     10.3733  29.1696   3.5317   O.co2    55 RES55   0.0000
  7306 C3      10.3733  25.5779   3.8452   C.2      55 RES55   0.0000
  7307 H3      10.3733  25.3336   2.9273   H        55 RES55   0.0000
  7308 O1A      9.3256  32.1674   1.0477   O.3      55 RES55   0.0000
  7309 O2A     10.3733  33.0699   3.5317   O.co2    55 RES55   0.0000
  7310 C3      10.3733  36.6616   3.8452   C.2      55 RES55   0.0000
  7311 H3      10.3733  36.9059   2.9273   H        55 RES55   0.0000
  7312 O1A     11.4209  30.0721   1.0477   O.3      55 RES55   0.0000
  7313 O2A     12.3234  34.6514   0.0000   O.co2    55 RES55   0.0000
  7314 C3      15.9151  34.9649   0.0000   C.2      55 RES55   0.0000
  7315 H3      16.1594  34.0471   0.0000   H        55 RES55   0.0000
  7316 O2A      8.4231  34.6514   0.0000   O.co2    55 RES55   0.0000
  7317 C3       4.8314  34.9649   0.0000   C.2      55 RES55   0.0000
  7318 H3       4.5871  34.0471   0.0000   H        55 RES55   0.0000
  7319 O2A      8.4231  27.5881   0.0000   O.co2    55 RES55   0.0000
  7320 C3       4.8314  27.2746   0.0000   C.2      55 RES55   0.0000
  7321 H3       4.5871  28.1924   0.0000   H        55 RES55   0.0000
  7322 O2A     12.3234  27.5881   0.0000   O.co2    55 RES55   0.0000
  7323 C3      15.9151  27.2746   0.0000   C.2      55 RES55   0.0000
  7324 H3      16.1594  28.1924   0.0000   H        55 RES55   0.0000
  7325 O2A     13.9049  31.1198  -1.9502   O.co2    55 RES55   0.0000
  7326 C2      14.5804  31.1198  -4.2072   C.2      55 RES55   0.0000
  7327 C3      14.2184  31.1198  -5.5418   C.2      55 RES55   0.0000
  7328 H3      13.3006  31.1198  -5.7862   H        55 RES55   0.0000
  7329 C1      13.5224  31.1198  -3.1491   C.2      55 RES55   0.0000
  7330 O2A     13.9049  31.1198   1.9502   O.co2    55 RES55   0.0000
  7331 C3      14.2184  31.1198   5.5418   C.2      55 RES55   0.0000
  7332 H3      13.3006  31.1198   5.7862   H        55 RES55   0.0000
  7333 O2A      6.8416  31.1198   1.9502   O.co2    55 RES55   0.0000
  7334 C3       6.5281  31.1198   5.5418   C.2      55 RES55   0.0000
  7335 H3       7.4459  31.1198   5.7862   H        55 RES55   0.0000
  7336 O2A      6.8416  31.1198  -1.9502   O.co2    55 RES55   0.0000
  7337 C2       6.1661  31.1198  -4.2072   C.2      55 RES55   0.0000
  7338 C3       6.5281  31.1198  -5.5418   C.2      55 RES55   0.0000
  7339 H3       7.4459  31.1198  -5.7862   H        55 RES55   0.0000
  7340 C1       7.2241  31.1198  -3.1491   C.2      55 RES55   0.0000
  7341 O2A      8.4231  31.1198  -3.5317   O.co2    55 RES55   0.0000
  7342 C3       4.8314  31.1198  -3.8452   C.2      55 RES55   0.0000
  7343 H3       4.5871  31.1198  -2.9273   H        55 RES55   0.0000
  7344 O2A     12.3234  31.1198  -3.5317   O.co2    55 RES55   0.0000
  7345 C3      15.9151  31.1198  -3.8452   C.2      55 RES55   0.0000
  7346 H3      16.1594  31.1198  -2.9273   H        55 RES55   0.0000
  7347 C3      10.3733  24.5917  -4.8314   C.2      55 RES55   0.0000
  7348 C3      10.3733  24.5917   4.8314   C.2      55 RES55   0.0000
  7349 C3      10.3733  37.6478   4.8314   C.2      55 RES55   0.0000
  7350 C3      10.3733  37.6478  -4.8314   C.2      55 RES55   0.0000
  7351 C3      10.3733  26.2883   6.5281   C.2      55 RES55   0.0000
  7352 C3      10.3733  35.9512   6.5281   C.2      55 RES55   0.0000
  7353 C3      10.3733  35.9512  -6.5281   C.2      55 RES55   0.0000
  7354 C3      10.3733  26.2883  -6.5281   C.2      55 RES55   0.0000
  7355 C3       5.5418  31.1198  -6.5281   C.2      55 RES55   0.0000
  7356 C3      15.2047  31.1198  -6.5281   C.2      55 RES55   0.0000
  7357 C3      15.2047  31.1198   6.5281   C.2      55 RES55   0.0000
  7358 C3       5.5418  31.1198   6.5281   C.2      55 RES55   0.0000
  7359 C3       3.8452  31.1198   4.8314   C.2      55 RES55   0.0000
  7360 C3       3.8452  31.1198  -4.8314   C.2      55 RES55   0.0000
  7361 C3      16.9013  31.1198  -4.8314   C.2      55 RES55   0.0000
  7362 C3      16.9013  31.1198   4.8314   C.2      55 RES55   0.0000
  7363 C3       3.8452  26.2883   0.0000   C.2      55 RES55   0.0000
  7364 C3       3.8452  35.9512   0.0000   C.2      55 RES55   0.0000
  7365 C3      16.9013  35.9512   0.0000   C.2      55 RES55   0.0000
  7366 C3      16.9013  26.2883   0.0000   C.2      55 RES55   0.0000
  7367 C3       5.5418  24.5917   0.0000   C.2      55 RES55   0.0000
  7368 C3      15.2047  24.5917   0.0000   C.2      55 RES55   0.0000
  7369 C3      15.2047  37.6478   0.0000   C.2      55 RES55   0.0000
  7370 C3       5.5418  37.6478   0.0000   C.2      55 RES55   0.0000
  7371 Zr1     10.3733  31.1198  23.2309   Zr       56 RES56   0.0000
  7372 O2A     12.3234  31.1198  24.2782   O.co2    56 RES56   0.0000
  7373 C2      14.5804  31.1198  24.9537   C.2      56 RES56   0.0000
  7374 C3      15.9151  31.1198  24.5917   C.2      56 RES56   0.0000
  7375 H3      16.1594  31.1198  23.6738   H        56 RES56   0.0000
  7376 O1A      9.3256  30.0721  21.7942   O.3      56 RES56   0.0000
  7377 C1      13.5224  31.1198  23.8956   C.2      56 RES56   0.0000
  7378 O2A      8.4231  31.1198  24.2782   O.co2    56 RES56   0.0000
  7379 C2       6.1661  31.1198  24.9537   C.2      56 RES56   0.0000
  7380 C3       4.8314  31.1198  24.5917   C.2      56 RES56   0.0000
  7381 H3       4.5871  31.1198  23.6738   H        56 RES56   0.0000
  7382 O1A     11.4209  32.1674  21.7942   O.3      56 RES56   0.0000
  7383 C1       7.2241  31.1198  23.8956   C.2      56 RES56   0.0000
  7384 Zr1     12.8576  31.1198  20.7465   Zr       56 RES56   0.0000
  7385 O2A     13.9049  33.0699  20.7465   O.co2    56 RES56   0.0000
  7386 C2      14.5804  35.3269  20.7465   C.2      56 RES56   0.0000
  7387 C3      14.2184  36.6616  20.7465   C.2      56 RES56   0.0000
  7388 H3      13.3006  36.9059  20.7465   H        56 RES56   0.0000
  7389 O1A     11.4209  30.0721  19.6988   O.3      56 RES56   0.0000
  7390 C1      13.5224  34.2689  20.7465   C.2      56 RES56   0.0000
  7391 O2A     13.9049  29.1696  20.7465   O.co2    56 RES56   0.0000
  7392 C2      14.5804  26.9126  20.7465   C.2      56 RES56   0.0000
  7393 C3      14.2184  25.5779  20.7465   C.2      56 RES56   0.0000
  7394 H3      13.3006  25.3336  20.7465   H        56 RES56   0.0000
  7395 C1      13.5224  27.9706  20.7465   C.2      56 RES56   0.0000
  7396 Zr1      7.8889  31.1198  20.7465   Zr       56 RES56   0.0000
  7397 O2A      6.8416  29.1696  20.7465   O.co2    56 RES56   0.0000
  7398 C2       6.1661  26.9126  20.7465   C.2      56 RES56   0.0000
  7399 C3       6.5281  25.5779  20.7465   C.2      56 RES56   0.0000
  7400 H3       7.4459  25.3336  20.7465   H        56 RES56   0.0000
  7401 O1A      9.3256  32.1674  19.6988   O.3      56 RES56   0.0000
  7402 C1       7.2241  27.9706  20.7465   C.2      56 RES56   0.0000
  7403 O2A      6.8416  33.0699  20.7465   O.co2    56 RES56   0.0000
  7404 C2       6.1661  35.3269  20.7465   C.2      56 RES56   0.0000
  7405 C3       6.5281  36.6616  20.7465   C.2      56 RES56   0.0000
  7406 H3       7.4459  36.9059  20.7465   H        56 RES56   0.0000
  7407 C1       7.2241  34.2689  20.7465   C.2      56 RES56   0.0000
  7408 Zr1     10.3733  33.6041  20.7465   Zr       56 RES56   0.0000
  7409 O2A     10.3733  34.6514  22.6967   O.co2    56 RES56   0.0000
  7410 C2      10.3733  35.3269  24.9537   C.2      56 RES56   0.0000
  7411 C3      10.3733  34.9649  26.2883   C.2      56 RES56   0.0000
  7412 H3      10.3733  34.0471  26.5327   H        56 RES56   0.0000
  7413 C1      10.3733  34.2689  23.8956   C.2      56 RES56   0.0000
  7414 O2A     10.3733  34.6514  18.7963   O.co2    56 RES56   0.0000
  7415 C2      10.3733  35.3269  16.5393   C.2      56 RES56   0.0000
  7416 C3      10.3733  34.9649  15.2047   C.2      56 RES56   0.0000
  7417 H3      10.3733  34.0471  14.9603   H        56 RES56   0.0000
  7418 C1      10.3733  34.2689  17.5974   C.2      56 RES56   0.0000
  7419 Zr1     10.3733  28.6354  20.7465   Zr       56 RES56   0.0000
  7420 O2A     10.3733  27.5881  18.7963   O.co2    56 RES56   0.0000
  7421 C2      10.3733  26.9126  16.5393   C.2      56 RES56   0.0000
  7422 C3      10.3733  27.2746  15.2047   C.2      56 RES56   0.0000
  7423 H3      10.3733  28.1924  14.9603   H        56 RES56   0.0000
  7424 C1      10.3733  27.9706  17.5974   C.2      56 RES56   0.0000
  7425 O2A     10.3733  27.5881  22.6967   O.co2    56 RES56   0.0000
  7426 C2      10.3733  26.9126  24.9537   C.2      56 RES56   0.0000
  7427 C3      10.3733  27.2746  26.2883   C.2      56 RES56   0.0000
  7428 H3      10.3733  28.1924  26.5327   H        56 RES56   0.0000
  7429 C1      10.3733  27.9706  23.8956   C.2      56 RES56   0.0000
  7430 Zr1     10.3733  31.1198  18.2621   Zr       56 RES56   0.0000
  7431 O2A     10.3733  33.0699  17.2148   O.co2    56 RES56   0.0000
  7432 C3      10.3733  36.6616  16.9013   C.2      56 RES56   0.0000
  7433 H3      10.3733  36.9059  17.8192   H        56 RES56   0.0000
  7434 O1A      9.3256  30.0721  19.6988   O.3      56 RES56   0.0000
  7435 O2A     10.3733  29.1696  17.2148   O.co2    56 RES56   0.0000
  7436 C3      10.3733  25.5779  16.9013   C.2      56 RES56   0.0000
  7437 H3      10.3733  25.3336  17.8192   H        56 RES56   0.0000
  7438 O1A     11.4209  32.1674  19.6988   O.3      56 RES56   0.0000
  7439 O2A     10.3733  29.1696  24.2782   O.co2    56 RES56   0.0000
  7440 C3      10.3733  25.5779  24.5917   C.2      56 RES56   0.0000
  7441 H3      10.3733  25.3336  23.6738   H        56 RES56   0.0000
  7442 O1A      9.3256  32.1674  21.7942   O.3      56 RES56   0.0000
  7443 O2A     10.3733  33.0699  24.2782   O.co2    56 RES56   0.0000
  7444 C3      10.3733  36.6616  24.5917   C.2      56 RES56   0.0000
  7445 H3      10.3733  36.9059  23.6738   H        56 RES56   0.0000
  7446 O1A     11.4209  30.0721  21.7942   O.3      56 RES56   0.0000
  7447 O2A     12.3234  34.6514  20.7465   O.co2    56 RES56   0.0000
  7448 C3      15.9151  34.9649  20.7465   C.2      56 RES56   0.0000
  7449 H3      16.1594  34.0471  20.7465   H        56 RES56   0.0000
  7450 O2A      8.4231  34.6514  20.7465   O.co2    56 RES56   0.0000
  7451 C3       4.8314  34.9649  20.7465   C.2      56 RES56   0.0000
  7452 H3       4.5871  34.0471  20.7465   H        56 RES56   0.0000
  7453 O2A      8.4231  27.5881  20.7465   O.co2    56 RES56   0.0000
  7454 C3       4.8314  27.2746  20.7465   C.2      56 RES56   0.0000
  7455 H3       4.5871  28.1924  20.7465   H        56 RES56   0.0000
  7456 O2A     12.3234  27.5881  20.7465   O.co2    56 RES56   0.0000
  7457 C3      15.9151  27.2746  20.7465   C.2      56 RES56   0.0000
  7458 H3      16.1594  28.1924  20.7465   H        56 RES56   0.0000
  7459 O2A     13.9049  31.1198  18.7963   O.co2    56 RES56   0.0000
  7460 C2      14.5804  31.1198  16.5393   C.2      56 RES56   0.0000
  7461 C3      14.2184  31.1198  15.2047   C.2      56 RES56   0.0000
  7462 H3      13.3006  31.1198  14.9603   H        56 RES56   0.0000
  7463 C1      13.5224  31.1198  17.5974   C.2      56 RES56   0.0000
  7464 O2A     13.9049  31.1198  22.6967   O.co2    56 RES56   0.0000
  7465 C3      14.2184  31.1198  26.2883   C.2      56 RES56   0.0000
  7466 H3      13.3006  31.1198  26.5327   H        56 RES56   0.0000
  7467 O2A      6.8416  31.1198  22.6967   O.co2    56 RES56   0.0000
  7468 C3       6.5281  31.1198  26.2883   C.2      56 RES56   0.0000
  7469 H3       7.4459  31.1198  26.5327   H        56 RES56   0.0000
  7470 O2A      6.8416  31.1198  18.7963   O.co2    56 RES56   0.0000
  7471 C2       6.1661  31.1198  16.5393   C.2      56 RES56   0.0000
  7472 C3       6.5281  31.1198  15.2047   C.2      56 RES56   0.0000
  7473 H3       7.4459  31.1198  14.9603   H        56 RES56   0.0000
  7474 C1       7.2241  31.1198  17.5974   C.2      56 RES56   0.0000
  7475 O2A      8.4231  31.1198  17.2148   O.co2    56 RES56   0.0000
  7476 C3       4.8314  31.1198  16.9013   C.2      56 RES56   0.0000
  7477 H3       4.5871  31.1198  17.8192   H        56 RES56   0.0000
  7478 O2A     12.3234  31.1198  17.2148   O.co2    56 RES56   0.0000
  7479 C3      15.9151  31.1198  16.9013   C.2      56 RES56   0.0000
  7480 H3      16.1594  31.1198  17.8192   H        56 RES56   0.0000
  7481 C3      10.3733  24.5917  15.9151   C.2      56 RES56   0.0000
  7482 C3      10.3733  24.5917  25.5779   C.2      56 RES56   0.0000
  7483 C3      10.3733  37.6478  25.5779   C.2      56 RES56   0.0000
  7484 C3      10.3733  37.6478  15.9151   C.2      56 RES56   0.0000
  7485 C3      10.3733  26.2883  27.2746   C.2      56 RES56   0.0000
  7486 C3      10.3733  35.9512  27.2746   C.2      56 RES56   0.0000
  7487 C3      10.3733  35.9512  14.2184   C.2      56 RES56   0.0000
  7488 C3      10.3733  26.2883  14.2184   C.2      56 RES56   0.0000
  7489 C3       5.5418  31.1198  14.2184   C.2      56 RES56   0.0000
  7490 C3      15.2047  31.1198  14.2184   C.2      56 RES56   0.0000
  7491 C3      15.2047  31.1198  27.2746   C.2      56 RES56   0.0000
  7492 C3       5.5418  31.1198  27.2746   C.2      56 RES56   0.0000
  7493 C3       3.8452  31.1198  25.5779   C.2      56 RES56   0.0000
  7494 C3       3.8452  31.1198  15.9151   C.2      56 RES56   0.0000
  7495 C3      16.9013  31.1198  15.9151   C.2      56 RES56   0.0000
  7496 C3      16.9013  31.1198  25.5779   C.2      56 RES56   0.0000
  7497 C3       3.8452  26.2883  20.7465   C.2      56 RES56   0.0000
  7498 C3       3.8452  35.9512  20.7465   C.2      56 RES56   0.0000
  7499 C3      16.9013  35.9512  20.7465   C.2      56 RES56   0.0000
  7500 C3      16.9013  26.2883  20.7465   C.2      56 RES56   0.0000
  7501 C3       5.5418  24.5917  20.7465   C.2      56 RES56   0.0000
  7502 C3      15.2047  24.5917  20.7465   C.2      56 RES56   0.0000
  7503 C3      15.2047  37.6478  20.7465   C.2      56 RES56   0.0000
  7504 C3       5.5418  37.6478  20.7465   C.2      56 RES56   0.0000
  7505 Zr1     10.3733  31.1198  43.9774   Zr       57 RES57   0.0000
  7506 O2A     12.3234  31.1198  45.0247   O.co2    57 RES57   0.0000
  7507 C2      14.5804  31.1198  45.7002   C.2      57 RES57   0.0000
  7508 C3      15.9151  31.1198  45.3382   C.2      57 RES57   0.0000
  7509 H3      16.1594  31.1198  44.4203   H        57 RES57   0.0000
  7510 O1A      9.3256  30.0721  42.5407   O.3      57 RES57   0.0000
  7511 C1      13.5224  31.1198  44.6421   C.2      57 RES57   0.0000
  7512 O2A      8.4231  31.1198  45.0247   O.co2    57 RES57   0.0000
  7513 C2       6.1661  31.1198  45.7002   C.2      57 RES57   0.0000
  7514 C3       4.8314  31.1198  45.3382   C.2      57 RES57   0.0000
  7515 H3       4.5871  31.1198  44.4203   H        57 RES57   0.0000
  7516 O1A     11.4209  32.1674  42.5407   O.3      57 RES57   0.0000
  7517 C1       7.2241  31.1198  44.6421   C.2      57 RES57   0.0000
  7518 Zr1     12.8576  31.1198  41.4930   Zr       57 RES57   0.0000
  7519 O2A     13.9049  33.0699  41.4930   O.co2    57 RES57   0.0000
  7520 C2      14.5804  35.3269  41.4930   C.2      57 RES57   0.0000
  7521 C3      14.2184  36.6616  41.4930   C.2      57 RES57   0.0000
  7522 H3      13.3006  36.9059  41.4930   H        57 RES57   0.0000
  7523 O1A     11.4209  30.0721  40.4453   O.3      57 RES57   0.0000
  7524 C1      13.5224  34.2689  41.4930   C.2      57 RES57   0.0000
  7525 O2A     13.9049  29.1696  41.4930   O.co2    57 RES57   0.0000
  7526 C2      14.5804  26.9126  41.4930   C.2      57 RES57   0.0000
  7527 C3      14.2184  25.5779  41.4930   C.2      57 RES57   0.0000
  7528 H3      13.3006  25.3336  41.4930   H        57 RES57   0.0000
  7529 C1      13.5224  27.9706  41.4930   C.2      57 RES57   0.0000
  7530 Zr1      7.8889  31.1198  41.4930   Zr       57 RES57   0.0000
  7531 O2A      6.8416  29.1696  41.4930   O.co2    57 RES57   0.0000
  7532 C2       6.1661  26.9126  41.4930   C.2      57 RES57   0.0000
  7533 C3       6.5281  25.5779  41.4930   C.2      57 RES57   0.0000
  7534 H3       7.4459  25.3336  41.4930   H        57 RES57   0.0000
  7535 O1A      9.3256  32.1674  40.4453   O.3      57 RES57   0.0000
  7536 C1       7.2241  27.9706  41.4930   C.2      57 RES57   0.0000
  7537 O2A      6.8416  33.0699  41.4930   O.co2    57 RES57   0.0000
  7538 C2       6.1661  35.3269  41.4930   C.2      57 RES57   0.0000
  7539 C3       6.5281  36.6616  41.4930   C.2      57 RES57   0.0000
  7540 H3       7.4459  36.9059  41.4930   H        57 RES57   0.0000
  7541 C1       7.2241  34.2689  41.4930   C.2      57 RES57   0.0000
  7542 Zr1     10.3733  33.6041  41.4930   Zr       57 RES57   0.0000
  7543 O2A     10.3733  34.6514  43.4432   O.co2    57 RES57   0.0000
  7544 C2      10.3733  35.3269  45.7002   C.2      57 RES57   0.0000
  7545 C3      10.3733  34.9649  47.0348   C.2      57 RES57   0.0000
  7546 H3      10.3733  34.0471  47.2792   H        57 RES57   0.0000
  7547 C1      10.3733  34.2689  44.6421   C.2      57 RES57   0.0000
  7548 O2A     10.3733  34.6514  39.5428   O.co2    57 RES57   0.0000
  7549 C2      10.3733  35.3269  37.2858   C.2      57 RES57   0.0000
  7550 C3      10.3733  34.9649  35.9512   C.2      57 RES57   0.0000
  7551 H3      10.3733  34.0471  35.7068   H        57 RES57   0.0000
  7552 C1      10.3733  34.2689  38.3439   C.2      57 RES57   0.0000
  7553 Zr1     10.3733  28.6354  41.4930   Zr       57 RES57   0.0000
  7554 O2A     10.3733  27.5881  39.5428   O.co2    57 RES57   0.0000
  7555 C2      10.3733  26.9126  37.2858   C.2      57 RES57   0.0000
  7556 C3      10.3733  27.2746  35.9512   C.2      57 RES57   0.0000
  7557 H3      10.3733  28.1924  35.7068   H        57 RES57   0.0000
  7558 C1      10.3733  27.9706  38.3439   C.2      57 RES57   0.0000
  7559 O2A     10.3733  27.5881  43.4432   O.co2    57 RES57   0.0000
  7560 C2      10.3733  26.9126  45.7002   C.2      57 RES57   0.0000
  7561 C3      10.3733  27.2746  47.0348   C.2      57 RES57   0.0000
  7562 H3      10.3733  28.1924  47.2792   H        57 RES57   0.0000
  7563 C1      10.3733  27.9706  44.6421   C.2      57 RES57   0.0000
  7564 Zr1     10.3733  31.1198  39.0086   Zr       57 RES57   0.0000
  7565 O2A     10.3733  33.0699  37.9613   O.co2    57 RES57   0.0000
  7566 C3      10.3733  36.6616  37.6478   C.2      57 RES57   0.0000
  7567 H3      10.3733  36.9059  38.5657   H        57 RES57   0.0000
  7568 O1A      9.3256  30.0721  40.4453   O.3      57 RES57   0.0000
  7569 O2A     10.3733  29.1696  37.9613   O.co2    57 RES57   0.0000
  7570 C3      10.3733  25.5779  37.6478   C.2      57 RES57   0.0000
  7571 H3      10.3733  25.3336  38.5657   H        57 RES57   0.0000
  7572 O1A     11.4209  32.1674  40.4453   O.3      57 RES57   0.0000
  7573 O2A     10.3733  29.1696  45.0247   O.co2    57 RES57   0.0000
  7574 C3      10.3733  25.5779  45.3382   C.2      57 RES57   0.0000
  7575 H3      10.3733  25.3336  44.4203   H        57 RES57   0.0000
  7576 O1A      9.3256  32.1674  42.5407   O.3      57 RES57   0.0000
  7577 O2A     10.3733  33.0699  45.0247   O.co2    57 RES57   0.0000
  7578 C3      10.3733  36.6616  45.3382   C.2      57 RES57   0.0000
  7579 H3      10.3733  36.9059  44.4203   H        57 RES57   0.0000
  7580 O1A     11.4209  30.0721  42.5407   O.3      57 RES57   0.0000
  7581 O2A     12.3234  34.6514  41.4930   O.co2    57 RES57   0.0000
  7582 C3      15.9151  34.9649  41.4930   C.2      57 RES57   0.0000
  7583 H3      16.1594  34.0471  41.4930   H        57 RES57   0.0000
  7584 O2A      8.4231  34.6514  41.4930   O.co2    57 RES57   0.0000
  7585 C3       4.8314  34.9649  41.4930   C.2      57 RES57   0.0000
  7586 H3       4.5871  34.0471  41.4930   H        57 RES57   0.0000
  7587 O2A      8.4231  27.5881  41.4930   O.co2    57 RES57   0.0000
  7588 C3       4.8314  27.2746  41.4930   C.2      57 RES57   0.0000
  7589 H3       4.5871  28.1924  41.4930   H        57 RES57   0.0000
  7590 O2A     12.3234  27.5881  41.4930   O.co2    57 RES57   0.0000
  7591 C3      15.9151  27.2746  41.4930   C.2      57 RES57   0.0000
  7592 H3      16.1594  28.1924  41.4930   H        57 RES57   0.0000
  7593 O2A     13.9049  31.1198  39.5428   O.co2    57 RES57   0.0000
  7594 C2      14.5804  31.1198  37.2858   C.2      57 RES57   0.0000
  7595 C3      14.2184  31.1198  35.9512   C.2      57 RES57   0.0000
  7596 H3      13.3006  31.1198  35.7068   H        57 RES57   0.0000
  7597 C1      13.5224  31.1198  38.3439   C.2      57 RES57   0.0000
  7598 O2A     13.9049  31.1198  43.4432   O.co2    57 RES57   0.0000
  7599 C3      14.2184  31.1198  47.0348   C.2      57 RES57   0.0000
  7600 H3      13.3006  31.1198  47.2792   H        57 RES57   0.0000
  7601 O2A      6.8416  31.1198  43.4432   O.co2    57 RES57   0.0000
  7602 C3       6.5281  31.1198  47.0348   C.2      57 RES57   0.0000
  7603 H3       7.4459  31.1198  47.2792   H        57 RES57   0.0000
  7604 O2A      6.8416  31.1198  39.5428   O.co2    57 RES57   0.0000
  7605 C2       6.1661  31.1198  37.2858   C.2      57 RES57   0.0000
  7606 C3       6.5281  31.1198  35.9512   C.2      57 RES57   0.0000
  7607 H3       7.4459  31.1198  35.7068   H        57 RES57   0.0000
  7608 C1       7.2241  31.1198  38.3439   C.2      57 RES57   0.0000
  7609 O2A      8.4231  31.1198  37.9613   O.co2    57 RES57   0.0000
  7610 C3       4.8314  31.1198  37.6478   C.2      57 RES57   0.0000
  7611 H3       4.5871  31.1198  38.5657   H        57 RES57   0.0000
  7612 O2A     12.3234  31.1198  37.9613   O.co2    57 RES57   0.0000
  7613 C3      15.9151  31.1198  37.6478   C.2      57 RES57   0.0000
  7614 H3      16.1594  31.1198  38.5657   H        57 RES57   0.0000
  7615 C3      10.3733  24.5917  36.6616   C.2      57 RES57   0.0000
  7616 C3      10.3733  24.5917  46.3244   C.2      57 RES57   0.0000
  7617 C3      10.3733  37.6478  46.3244   C.2      57 RES57   0.0000
  7618 C3      10.3733  37.6478  36.6616   C.2      57 RES57   0.0000
  7619 C3      10.3733  26.2883  48.0211   C.2      57 RES57   0.0000
  7620 C3      10.3733  35.9512  48.0211   C.2      57 RES57   0.0000
  7621 C3      10.3733  35.9512  34.9649   C.2      57 RES57   0.0000
  7622 C3      10.3733  26.2883  34.9649   C.2      57 RES57   0.0000
  7623 C3       5.5418  31.1198  34.9649   C.2      57 RES57   0.0000
  7624 C3      15.2047  31.1198  34.9649   C.2      57 RES57   0.0000
  7625 C3      15.2047  31.1198  48.0211   C.2      57 RES57   0.0000
  7626 C3       5.5418  31.1198  48.0211   C.2      57 RES57   0.0000
  7627 C3       3.8452  31.1198  46.3244   C.2      57 RES57   0.0000
  7628 C3       3.8452  31.1198  36.6616   C.2      57 RES57   0.0000
  7629 C3      16.9013  31.1198  36.6616   C.2      57 RES57   0.0000
  7630 C3      16.9013  31.1198  46.3244   C.2      57 RES57   0.0000
  7631 C3       3.8452  26.2883  41.4930   C.2      57 RES57   0.0000
  7632 C3       3.8452  35.9512  41.4930   C.2      57 RES57   0.0000
  7633 C3      16.9013  35.9512  41.4930   C.2      57 RES57   0.0000
  7634 C3      16.9013  26.2883  41.4930   C.2      57 RES57   0.0000
  7635 C3       5.5418  24.5917  41.4930   C.2      57 RES57   0.0000
  7636 C3      15.2047  24.5917  41.4930   C.2      57 RES57   0.0000
  7637 C3      15.2047  37.6478  41.4930   C.2      57 RES57   0.0000
  7638 C3       5.5418  37.6478  41.4930   C.2      57 RES57   0.0000
  7639 Zr1     31.1198  10.3733   2.4844   Zr       58 RES58   0.0000
  7640 O2A     33.0699  10.3733   3.5317   O.co2    58 RES58   0.0000
  7641 C2      35.3269  10.3733   4.2072   C.2      58 RES58   0.0000
  7642 C3      36.6616  10.3733   3.8452   C.2      58 RES58   0.0000
  7643 H3      36.9059  10.3733   2.9273   H        58 RES58   0.0000
  7644 O1A     30.0721   9.3256   1.0477   O.3      58 RES58   0.0000
  7645 C1      34.2689  10.3733   3.1491   C.2      58 RES58   0.0000
  7646 O2A     29.1696  10.3733   3.5317   O.co2    58 RES58   0.0000
  7647 C2      26.9126  10.3733   4.2072   C.2      58 RES58   0.0000
  7648 C3      25.5779  10.3733   3.8452   C.2      58 RES58   0.0000
  7649 H3      25.3336  10.3733   2.9273   H        58 RES58   0.0000
  7650 O1A     32.1674  11.4209   1.0477   O.3      58 RES58   0.0000
  7651 C1      27.9706  10.3733   3.1491   C.2      58 RES58   0.0000
  7652 Zr1     33.6041  10.3733   0.0000   Zr       58 RES58   0.0000
  7653 O2A     34.6514  12.3234   0.0000   O.co2    58 RES58   0.0000
  7654 C2      35.3269  14.5804   0.0000   C.2      58 RES58   0.0000
  7655 C3      34.9649  15.9151   0.0000   C.2      58 RES58   0.0000
  7656 H3      34.0471  16.1594   0.0000   H        58 RES58   0.0000
  7657 O1A     32.1674   9.3256  -1.0477   O.3      58 RES58   0.0000
  7658 C1      34.2689  13.5224   0.0000   C.2      58 RES58   0.0000
  7659 O2A     34.6514   8.4231   0.0000   O.co2    58 RES58   0.0000
  7660 C2      35.3269   6.1661   0.0000   C.2      58 RES58   0.0000
  7661 C3      34.9649   4.8314   0.0000   C.2      58 RES58   0.0000
  7662 H3      34.0471   4.5871   0.0000   H        58 RES58   0.0000
  7663 C1      34.2689   7.2241   0.0000   C.2      58 RES58   0.0000
  7664 Zr1     28.6354  10.3733   0.0000   Zr       58 RES58   0.0000
  7665 O2A     27.5881   8.4231   0.0000   O.co2    58 RES58   0.0000
  7666 C2      26.9126   6.1661   0.0000   C.2      58 RES58   0.0000
  7667 C3      27.2746   4.8314   0.0000   C.2      58 RES58   0.0000
  7668 H3      28.1924   4.5871   0.0000   H        58 RES58   0.0000
  7669 O1A     30.0721  11.4209  -1.0477   O.3      58 RES58   0.0000
  7670 C1      27.9706   7.2241   0.0000   C.2      58 RES58   0.0000
  7671 O2A     27.5881  12.3234   0.0000   O.co2    58 RES58   0.0000
  7672 C2      26.9126  14.5804   0.0000   C.2      58 RES58   0.0000
  7673 C3      27.2746  15.9151   0.0000   C.2      58 RES58   0.0000
  7674 H3      28.1924  16.1594   0.0000   H        58 RES58   0.0000
  7675 C1      27.9706  13.5224   0.0000   C.2      58 RES58   0.0000
  7676 Zr1     31.1198  12.8576   0.0000   Zr       58 RES58   0.0000
  7677 O2A     31.1198  13.9049   1.9502   O.co2    58 RES58   0.0000
  7678 C2      31.1198  14.5804   4.2072   C.2      58 RES58   0.0000
  7679 C3      31.1198  14.2184   5.5418   C.2      58 RES58   0.0000
  7680 H3      31.1198  13.3006   5.7862   H        58 RES58   0.0000
  7681 C1      31.1198  13.5224   3.1491   C.2      58 RES58   0.0000
  7682 O2A     31.1198  13.9049  -1.9502   O.co2    58 RES58   0.0000
  7683 C2      31.1198  14.5804  -4.2072   C.2      58 RES58   0.0000
  7684 C3      31.1198  14.2184  -5.5418   C.2      58 RES58   0.0000
  7685 H3      31.1198  13.3006  -5.7862   H        58 RES58   0.0000
  7686 C1      31.1198  13.5224  -3.1491   C.2      58 RES58   0.0000
  7687 Zr1     31.1198   7.8889   0.0000   Zr       58 RES58   0.0000
  7688 O2A     31.1198   6.8416  -1.9502   O.co2    58 RES58   0.0000
  7689 C2      31.1198   6.1661  -4.2072   C.2      58 RES58   0.0000
  7690 C3      31.1198   6.5281  -5.5418   C.2      58 RES58   0.0000
  7691 H3      31.1198   7.4459  -5.7862   H        58 RES58   0.0000
  7692 C1      31.1198   7.2241  -3.1491   C.2      58 RES58   0.0000
  7693 O2A     31.1198   6.8416   1.9502   O.co2    58 RES58   0.0000
  7694 C2      31.1198   6.1661   4.2072   C.2      58 RES58   0.0000
  7695 C3      31.1198   6.5281   5.5418   C.2      58 RES58   0.0000
  7696 H3      31.1198   7.4459   5.7862   H        58 RES58   0.0000
  7697 C1      31.1198   7.2241   3.1491   C.2      58 RES58   0.0000
  7698 Zr1     31.1198  10.3733  -2.4844   Zr       58 RES58   0.0000
  7699 O2A     31.1198  12.3234  -3.5317   O.co2    58 RES58   0.0000
  7700 C3      31.1198  15.9151  -3.8452   C.2      58 RES58   0.0000
  7701 H3      31.1198  16.1594  -2.9273   H        58 RES58   0.0000
  7702 O1A     30.0721   9.3256  -1.0477   O.3      58 RES58   0.0000
  7703 O2A     31.1198   8.4231  -3.5317   O.co2    58 RES58   0.0000
  7704 C3      31.1198   4.8314  -3.8452   C.2      58 RES58   0.0000
  7705 H3      31.1198   4.5871  -2.9273   H        58 RES58   0.0000
  7706 O1A     32.1674  11.4209  -1.0477   O.3      58 RES58   0.0000
  7707 O2A     31.1198   8.4231   3.5317   O.co2    58 RES58   0.0000
  7708 C3      31.1198   4.8314   3.8452   C.2      58 RES58   0.0000
  7709 H3      31.1198   4.5871   2.9273   H        58 RES58   0.0000
  7710 O1A     30.0721  11.4209   1.0477   O.3      58 RES58   0.0000
  7711 O2A     31.1198  12.3234   3.5317   O.co2    58 RES58   0.0000
  7712 C3      31.1198  15.9151   3.8452   C.2      58 RES58   0.0000
  7713 H3      31.1198  16.1594   2.9273   H        58 RES58   0.0000
  7714 O1A     32.1674   9.3256   1.0477   O.3      58 RES58   0.0000
  7715 O2A     33.0699  13.9049   0.0000   O.co2    58 RES58   0.0000
  7716 C3      36.6616  14.2184   0.0000   C.2      58 RES58   0.0000
  7717 H3      36.9059  13.3006   0.0000   H        58 RES58   0.0000
  7718 O2A     29.1696  13.9049   0.0000   O.co2    58 RES58   0.0000
  7719 C3      25.5779  14.2184   0.0000   C.2      58 RES58   0.0000
  7720 H3      25.3336  13.3006   0.0000   H        58 RES58   0.0000
  7721 O2A     29.1696   6.8416   0.0000   O.co2    58 RES58   0.0000
  7722 C3      25.5779   6.5281   0.0000   C.2      58 RES58   0.0000
  7723 H3      25.3336   7.4459   0.0000   H        58 RES58   0.0000
  7724 O2A     33.0699   6.8416   0.0000   O.co2    58 RES58   0.0000
  7725 C3      36.6616   6.5281   0.0000   C.2      58 RES58   0.0000
  7726 H3      36.9059   7.4459   0.0000   H        58 RES58   0.0000
  7727 O2A     34.6514  10.3733  -1.9502   O.co2    58 RES58   0.0000
  7728 C2      35.3269  10.3733  -4.2072   C.2      58 RES58   0.0000
  7729 C3      34.9649  10.3733  -5.5418   C.2      58 RES58   0.0000
  7730 H3      34.0471  10.3733  -5.7862   H        58 RES58   0.0000
  7731 C1      34.2689  10.3733  -3.1491   C.2      58 RES58   0.0000
  7732 O2A     34.6514  10.3733   1.9502   O.co2    58 RES58   0.0000
  7733 C3      34.9649  10.3733   5.5418   C.2      58 RES58   0.0000
  7734 H3      34.0471  10.3733   5.7862   H        58 RES58   0.0000
  7735 O2A     27.5881  10.3733   1.9502   O.co2    58 RES58   0.0000
  7736 C3      27.2746  10.3733   5.5418   C.2      58 RES58   0.0000
  7737 H3      28.1924  10.3733   5.7862   H        58 RES58   0.0000
  7738 O2A     27.5881  10.3733  -1.9502   O.co2    58 RES58   0.0000
  7739 C2      26.9126  10.3733  -4.2072   C.2      58 RES58   0.0000
  7740 C3      27.2746  10.3733  -5.5418   C.2      58 RES58   0.0000
  7741 H3      28.1924  10.3733  -5.7862   H        58 RES58   0.0000
  7742 C1      27.9706  10.3733  -3.1491   C.2      58 RES58   0.0000
  7743 O2A     29.1696  10.3733  -3.5317   O.co2    58 RES58   0.0000
  7744 C3      25.5779  10.3733  -3.8452   C.2      58 RES58   0.0000
  7745 H3      25.3336  10.3733  -2.9273   H        58 RES58   0.0000
  7746 O2A     33.0699  10.3733  -3.5317   O.co2    58 RES58   0.0000
  7747 C3      36.6616  10.3733  -3.8452   C.2      58 RES58   0.0000
  7748 H3      36.9059  10.3733  -2.9273   H        58 RES58   0.0000
  7749 C3      31.1198   3.8452  -4.8314   C.2      58 RES58   0.0000
  7750 C3      31.1198   3.8452   4.8314   C.2      58 RES58   0.0000
  7751 C3      31.1198  16.9013   4.8314   C.2      58 RES58   0.0000
  7752 C3      31.1198  16.9013  -4.8314   C.2      58 RES58   0.0000
  7753 C3      31.1198   5.5418   6.5281   C.2      58 RES58   0.0000
  7754 C3      31.1198  15.2047   6.5281   C.2      58 RES58   0.0000
  7755 C3      31.1198  15.2047  -6.5281   C.2      58 RES58   0.0000
  7756 C3      31.1198   5.5418  -6.5281   C.2      58 RES58   0.0000
  7757 C3      26.2883  10.3733  -6.5281   C.2      58 RES58   0.0000
  7758 C3      35.9512  10.3733  -6.5281   C.2      58 RES58   0.0000
  7759 C3      35.9512  10.3733   6.5281   C.2      58 RES58   0.0000
  7760 C3      26.2883  10.3733   6.5281   C.2      58 RES58   0.0000
  7761 C3      24.5917  10.3733   4.8314   C.2      58 RES58   0.0000
  7762 C3      24.5917  10.3733  -4.8314   C.2      58 RES58   0.0000
  7763 C3      37.6478  10.3733  -4.8314   C.2      58 RES58   0.0000
  7764 C3      37.6478  10.3733   4.8314   C.2      58 RES58   0.0000
  7765 C3      24.5917   5.5418   0.0000   C.2      58 RES58   0.0000
  7766 C3      24.5917  15.2047   0.0000   C.2      58 RES58   0.0000
  7767 C3      37.6478  15.2047   0.0000   C.2      58 RES58   0.0000
  7768 C3      37.6478   5.5418   0.0000   C.2      58 RES58   0.0000
  7769 C3      26.2883   3.8452   0.0000   C.2      58 RES58   0.0000
  7770 C3      35.9512   3.8452   0.0000   C.2      58 RES58   0.0000
  7771 C3      35.9512  16.9013   0.0000   C.2      58 RES58   0.0000
  7772 C3      26.2883  16.9013   0.0000   C.2      58 RES58   0.0000
  7773 Zr1     31.1198  10.3733  23.2309   Zr       59 RES59   0.0000
  7774 O2A     33.0699  10.3733  24.2782   O.co2    59 RES59   0.0000
  7775 C2      35.3269  10.3733  24.9537   C.2      59 RES59   0.0000
  7776 C3      36.6616  10.3733  24.5917   C.2      59 RES59   0.0000
  7777 H3      36.9059  10.3733  23.6738   H        59 RES59   0.0000
  7778 O1A     30.0721   9.3256  21.7942   O.3      59 RES59   0.0000
  7779 C1      34.2689  10.3733  23.8956   C.2      59 RES59   0.0000
  7780 O2A     29.1696  10.3733  24.2782   O.co2    59 RES59   0.0000
  7781 C2      26.9126  10.3733  24.9537   C.2      59 RES59   0.0000
  7782 C3      25.5779  10.3733  24.5917   C.2      59 RES59   0.0000
  7783 H3      25.3336  10.3733  23.6738   H        59 RES59   0.0000
  7784 O1A     32.1674  11.4209  21.7942   O.3      59 RES59   0.0000
  7785 C1      27.9706  10.3733  23.8956   C.2      59 RES59   0.0000
  7786 Zr1     33.6041  10.3733  20.7465   Zr       59 RES59   0.0000
  7787 O2A     34.6514  12.3234  20.7465   O.co2    59 RES59   0.0000
  7788 C2      35.3269  14.5804  20.7465   C.2      59 RES59   0.0000
  7789 C3      34.9649  15.9151  20.7465   C.2      59 RES59   0.0000
  7790 H3      34.0471  16.1594  20.7465   H        59 RES59   0.0000
  7791 O1A     32.1674   9.3256  19.6988   O.3      59 RES59   0.0000
  7792 C1      34.2689  13.5224  20.7465   C.2      59 RES59   0.0000
  7793 O2A     34.6514   8.4231  20.7465   O.co2    59 RES59   0.0000
  7794 C2      35.3269   6.1661  20.7465   C.2      59 RES59   0.0000
  7795 C3      34.9649   4.8314  20.7465   C.2      59 RES59   0.0000
  7796 H3      34.0471   4.5871  20.7465   H        59 RES59   0.0000
  7797 C1      34.2689   7.2241  20.7465   C.2      59 RES59   0.0000
  7798 Zr1     28.6354  10.3733  20.7465   Zr       59 RES59   0.0000
  7799 O2A     27.5881   8.4231  20.7465   O.co2    59 RES59   0.0000
  7800 C2      26.9126   6.1661  20.7465   C.2      59 RES59   0.0000
  7801 C3      27.2746   4.8314  20.7465   C.2      59 RES59   0.0000
  7802 H3      28.1924   4.5871  20.7465   H        59 RES59   0.0000
  7803 O1A     30.0721  11.4209  19.6988   O.3      59 RES59   0.0000
  7804 C1      27.9706   7.2241  20.7465   C.2      59 RES59   0.0000
  7805 O2A     27.5881  12.3234  20.7465   O.co2    59 RES59   0.0000
  7806 C2      26.9126  14.5804  20.7465   C.2      59 RES59   0.0000
  7807 C3      27.2746  15.9151  20.7465   C.2      59 RES59   0.0000
  7808 H3      28.1924  16.1594  20.7465   H        59 RES59   0.0000
  7809 C1      27.9706  13.5224  20.7465   C.2      59 RES59   0.0000
  7810 Zr1     31.1198  12.8576  20.7465   Zr       59 RES59   0.0000
  7811 O2A     31.1198  13.9049  22.6967   O.co2    59 RES59   0.0000
  7812 C2      31.1198  14.5804  24.9537   C.2      59 RES59   0.0000
  7813 C3      31.1198  14.2184  26.2883   C.2      59 RES59   0.0000
  7814 H3      31.1198  13.3006  26.5327   H        59 RES59   0.0000
  7815 C1      31.1198  13.5224  23.8956   C.2      59 RES59   0.0000
  7816 O2A     31.1198  13.9049  18.7963   O.co2    59 RES59   0.0000
  7817 C2      31.1198  14.5804  16.5393   C.2      59 RES59   0.0000
  7818 C3      31.1198  14.2184  15.2047   C.2      59 RES59   0.0000
  7819 H3      31.1198  13.3006  14.9603   H        59 RES59   0.0000
  7820 C1      31.1198  13.5224  17.5974   C.2      59 RES59   0.0000
  7821 Zr1     31.1198   7.8889  20.7465   Zr       59 RES59   0.0000
  7822 O2A     31.1198   6.8416  18.7963   O.co2    59 RES59   0.0000
  7823 C2      31.1198   6.1661  16.5393   C.2      59 RES59   0.0000
  7824 C3      31.1198   6.5281  15.2047   C.2      59 RES59   0.0000
  7825 H3      31.1198   7.4459  14.9603   H        59 RES59   0.0000
  7826 C1      31.1198   7.2241  17.5974   C.2      59 RES59   0.0000
  7827 O2A     31.1198   6.8416  22.6967   O.co2    59 RES59   0.0000
  7828 C2      31.1198   6.1661  24.9537   C.2      59 RES59   0.0000
  7829 C3      31.1198   6.5281  26.2883   C.2      59 RES59   0.0000
  7830 H3      31.1198   7.4459  26.5327   H        59 RES59   0.0000
  7831 C1      31.1198   7.2241  23.8956   C.2      59 RES59   0.0000
  7832 Zr1     31.1198  10.3733  18.2621   Zr       59 RES59   0.0000
  7833 O2A     31.1198  12.3234  17.2148   O.co2    59 RES59   0.0000
  7834 C3      31.1198  15.9151  16.9013   C.2      59 RES59   0.0000
  7835 H3      31.1198  16.1594  17.8192   H        59 RES59   0.0000
  7836 O1A     30.0721   9.3256  19.6988   O.3      59 RES59   0.0000
  7837 O2A     31.1198   8.4231  17.2148   O.co2    59 RES59   0.0000
  7838 C3      31.1198   4.8314  16.9013   C.2      59 RES59   0.0000
  7839 H3      31.1198   4.5871  17.8192   H        59 RES59   0.0000
  7840 O1A     32.1674  11.4209  19.6988   O.3      59 RES59   0.0000
  7841 O2A     31.1198   8.4231  24.2782   O.co2    59 RES59   0.0000
  7842 C3      31.1198   4.8314  24.5917   C.2      59 RES59   0.0000
  7843 H3      31.1198   4.5871  23.6738   H        59 RES59   0.0000
  7844 O1A     30.0721  11.4209  21.7942   O.3      59 RES59   0.0000
  7845 O2A     31.1198  12.3234  24.2782   O.co2    59 RES59   0.0000
  7846 C3      31.1198  15.9151  24.5917   C.2      59 RES59   0.0000
  7847 H3      31.1198  16.1594  23.6738   H        59 RES59   0.0000
  7848 O1A     32.1674   9.3256  21.7942   O.3      59 RES59   0.0000
  7849 O2A     33.0699  13.9049  20.7465   O.co2    59 RES59   0.0000
  7850 C3      36.6616  14.2184  20.7465   C.2      59 RES59   0.0000
  7851 H3      36.9059  13.3006  20.7465   H        59 RES59   0.0000
  7852 O2A     29.1696  13.9049  20.7465   O.co2    59 RES59   0.0000
  7853 C3      25.5779  14.2184  20.7465   C.2      59 RES59   0.0000
  7854 H3      25.3336  13.3006  20.7465   H        59 RES59   0.0000
  7855 O2A     29.1696   6.8416  20.7465   O.co2    59 RES59   0.0000
  7856 C3      25.5779   6.5281  20.7465   C.2      59 RES59   0.0000
  7857 H3      25.3336   7.4459  20.7465   H        59 RES59   0.0000
  7858 O2A     33.0699   6.8416  20.7465   O.co2    59 RES59   0.0000
  7859 C3      36.6616   6.5281  20.7465   C.2      59 RES59   0.0000
  7860 H3      36.9059   7.4459  20.7465   H        59 RES59   0.0000
  7861 O2A     34.6514  10.3733  18.7963   O.co2    59 RES59   0.0000
  7862 C2      35.3269  10.3733  16.5393   C.2      59 RES59   0.0000
  7863 C3      34.9649  10.3733  15.2047   C.2      59 RES59   0.0000
  7864 H3      34.0471  10.3733  14.9603   H        59 RES59   0.0000
  7865 C1      34.2689  10.3733  17.5974   C.2      59 RES59   0.0000
  7866 O2A     34.6514  10.3733  22.6967   O.co2    59 RES59   0.0000
  7867 C3      34.9649  10.3733  26.2883   C.2      59 RES59   0.0000
  7868 H3      34.0471  10.3733  26.5327   H        59 RES59   0.0000
  7869 O2A     27.5881  10.3733  22.6967   O.co2    59 RES59   0.0000
  7870 C3      27.2746  10.3733  26.2883   C.2      59 RES59   0.0000
  7871 H3      28.1924  10.3733  26.5327   H        59 RES59   0.0000
  7872 O2A     27.5881  10.3733  18.7963   O.co2    59 RES59   0.0000
  7873 C2      26.9126  10.3733  16.5393   C.2      59 RES59   0.0000
  7874 C3      27.2746  10.3733  15.2047   C.2      59 RES59   0.0000
  7875 H3      28.1924  10.3733  14.9603   H        59 RES59   0.0000
  7876 C1      27.9706  10.3733  17.5974   C.2      59 RES59   0.0000
  7877 O2A     29.1696  10.3733  17.2148   O.co2    59 RES59   0.0000
  7878 C3      25.5779  10.3733  16.9013   C.2      59 RES59   0.0000
  7879 H3      25.3336  10.3733  17.8192   H        59 RES59   0.0000
  7880 O2A     33.0699  10.3733  17.2148   O.co2    59 RES59   0.0000
  7881 C3      36.6616  10.3733  16.9013   C.2      59 RES59   0.0000
  7882 H3      36.9059  10.3733  17.8192   H        59 RES59   0.0000
  7883 C3      31.1198   3.8452  15.9151   C.2      59 RES59   0.0000
  7884 C3      31.1198   3.8452  25.5779   C.2      59 RES59   0.0000
  7885 C3      31.1198  16.9013  25.5779   C.2      59 RES59   0.0000
  7886 C3      31.1198  16.9013  15.9151   C.2      59 RES59   0.0000
  7887 C3      31.1198   5.5418  27.2746   C.2      59 RES59   0.0000
  7888 C3      31.1198  15.2047  27.2746   C.2      59 RES59   0.0000
  7889 C3      31.1198  15.2047  14.2184   C.2      59 RES59   0.0000
  7890 C3      31.1198   5.5418  14.2184   C.2      59 RES59   0.0000
  7891 C3      26.2883  10.3733  14.2184   C.2      59 RES59   0.0000
  7892 C3      35.9512  10.3733  14.2184   C.2      59 RES59   0.0000
  7893 C3      35.9512  10.3733  27.2746   C.2      59 RES59   0.0000
  7894 C3      26.2883  10.3733  27.2746   C.2      59 RES59   0.0000
  7895 C3      24.5917  10.3733  25.5779   C.2      59 RES59   0.0000
  7896 C3      24.5917  10.3733  15.9151   C.2      59 RES59   0.0000
  7897 C3      37.6478  10.3733  15.9151   C.2      59 RES59   0.0000
  7898 C3      37.6478  10.3733  25.5779   C.2      59 RES59   0.0000
  7899 C3      24.5917   5.5418  20.7465   C.2      59 RES59   0.0000
  7900 C3      24.5917  15.2047  20.7465   C.2      59 RES59   0.0000
  7901 C3      37.6478  15.2047  20.7465   C.2      59 RES59   0.0000
  7902 C3      37.6478   5.5418  20.7465   C.2      59 RES59   0.0000
  7903 C3      26.2883   3.8452  20.7465   C.2      59 RES59   0.0000
  7904 C3      35.9512   3.8452  20.7465   C.2      59 RES59   0.0000
  7905 C3      35.9512  16.9013  20.7465   C.2      59 RES59   0.0000
  7906 C3      26.2883  16.9013  20.7465   C.2      59 RES59   0.0000
  7907 Zr1     31.1198  10.3733  43.9774   Zr       60 RES60   0.0000
  7908 O2A     33.0699  10.3733  45.0247   O.co2    60 RES60   0.0000
  7909 C2      35.3269  10.3733  45.7002   C.2      60 RES60   0.0000
  7910 C3      36.6616  10.3733  45.3382   C.2      60 RES60   0.0000
  7911 H3      36.9059  10.3733  44.4203   H        60 RES60   0.0000
  7912 O1A     30.0721   9.3256  42.5407   O.3      60 RES60   0.0000
  7913 C1      34.2689  10.3733  44.6421   C.2      60 RES60   0.0000
  7914 O2A     29.1696  10.3733  45.0247   O.co2    60 RES60   0.0000
  7915 C2      26.9126  10.3733  45.7002   C.2      60 RES60   0.0000
  7916 C3      25.5779  10.3733  45.3382   C.2      60 RES60   0.0000
  7917 H3      25.3336  10.3733  44.4203   H        60 RES60   0.0000
  7918 O1A     32.1674  11.4209  42.5407   O.3      60 RES60   0.0000
  7919 C1      27.9706  10.3733  44.6421   C.2      60 RES60   0.0000
  7920 Zr1     33.6041  10.3733  41.4930   Zr       60 RES60   0.0000
  7921 O2A     34.6514  12.3234  41.4930   O.co2    60 RES60   0.0000
  7922 C2      35.3269  14.5804  41.4930   C.2      60 RES60   0.0000
  7923 C3      34.9649  15.9151  41.4930   C.2      60 RES60   0.0000
  7924 H3      34.0471  16.1594  41.4930   H        60 RES60   0.0000
  7925 O1A     32.1674   9.3256  40.4453   O.3      60 RES60   0.0000
  7926 C1      34.2689  13.5224  41.4930   C.2      60 RES60   0.0000
  7927 O2A     34.6514   8.4231  41.4930   O.co2    60 RES60   0.0000
  7928 C2      35.3269   6.1661  41.4930   C.2      60 RES60   0.0000
  7929 C3      34.9649   4.8314  41.4930   C.2      60 RES60   0.0000
  7930 H3      34.0471   4.5871  41.4930   H        60 RES60   0.0000
  7931 C1      34.2689   7.2241  41.4930   C.2      60 RES60   0.0000
  7932 Zr1     28.6354  10.3733  41.4930   Zr       60 RES60   0.0000
  7933 O2A     27.5881   8.4231  41.4930   O.co2    60 RES60   0.0000
  7934 C2      26.9126   6.1661  41.4930   C.2      60 RES60   0.0000
  7935 C3      27.2746   4.8314  41.4930   C.2      60 RES60   0.0000
  7936 H3      28.1924   4.5871  41.4930   H        60 RES60   0.0000
  7937 O1A     30.0721  11.4209  40.4453   O.3      60 RES60   0.0000
  7938 C1      27.9706   7.2241  41.4930   C.2      60 RES60   0.0000
  7939 O2A     27.5881  12.3234  41.4930   O.co2    60 RES60   0.0000
  7940 C2      26.9126  14.5804  41.4930   C.2      60 RES60   0.0000
  7941 C3      27.2746  15.9151  41.4930   C.2      60 RES60   0.0000
  7942 H3      28.1924  16.1594  41.4930   H        60 RES60   0.0000
  7943 C1      27.9706  13.5224  41.4930   C.2      60 RES60   0.0000
  7944 Zr1     31.1198  12.8576  41.4930   Zr       60 RES60   0.0000
  7945 O2A     31.1198  13.9049  43.4432   O.co2    60 RES60   0.0000
  7946 C2      31.1198  14.5804  45.7002   C.2      60 RES60   0.0000
  7947 C3      31.1198  14.2184  47.0348   C.2      60 RES60   0.0000
  7948 H3      31.1198  13.3006  47.2792   H        60 RES60   0.0000
  7949 C1      31.1198  13.5224  44.6421   C.2      60 RES60   0.0000
  7950 O2A     31.1198  13.9049  39.5428   O.co2    60 RES60   0.0000
  7951 C2      31.1198  14.5804  37.2858   C.2      60 RES60   0.0000
  7952 C3      31.1198  14.2184  35.9512   C.2      60 RES60   0.0000
  7953 H3      31.1198  13.3006  35.7068   H        60 RES60   0.0000
  7954 C1      31.1198  13.5224  38.3439   C.2      60 RES60   0.0000
  7955 Zr1     31.1198   7.8889  41.4930   Zr       60 RES60   0.0000
  7956 O2A     31.1198   6.8416  39.5428   O.co2    60 RES60   0.0000
  7957 C2      31.1198   6.1661  37.2858   C.2      60 RES60   0.0000
  7958 C3      31.1198   6.5281  35.9512   C.2      60 RES60   0.0000
  7959 H3      31.1198   7.4459  35.7068   H        60 RES60   0.0000
  7960 C1      31.1198   7.2241  38.3439   C.2      60 RES60   0.0000
  7961 O2A     31.1198   6.8416  43.4432   O.co2    60 RES60   0.0000
  7962 C2      31.1198   6.1661  45.7002   C.2      60 RES60   0.0000
  7963 C3      31.1198   6.5281  47.0348   C.2      60 RES60   0.0000
  7964 H3      31.1198   7.4459  47.2792   H        60 RES60   0.0000
  7965 C1      31.1198   7.2241  44.6421   C.2      60 RES60   0.0000
  7966 Zr1     31.1198  10.3733  39.0086   Zr       60 RES60   0.0000
  7967 O2A     31.1198  12.3234  37.9613   O.co2    60 RES60   0.0000
  7968 C3      31.1198  15.9151  37.6478   C.2      60 RES60   0.0000
  7969 H3      31.1198  16.1594  38.5657   H        60 RES60   0.0000
  7970 O1A     30.0721   9.3256  40.4453   O.3      60 RES60   0.0000
  7971 O2A     31.1198   8.4231  37.9613   O.co2    60 RES60   0.0000
  7972 C3      31.1198   4.8314  37.6478   C.2      60 RES60   0.0000
  7973 H3      31.1198   4.5871  38.5657   H        60 RES60   0.0000
  7974 O1A     32.1674  11.4209  40.4453   O.3      60 RES60   0.0000
  7975 O2A     31.1198   8.4231  45.0247   O.co2    60 RES60   0.0000
  7976 C3      31.1198   4.8314  45.3382   C.2      60 RES60   0.0000
  7977 H3      31.1198   4.5871  44.4203   H        60 RES60   0.0000
  7978 O1A     30.0721  11.4209  42.5407   O.3      60 RES60   0.0000
  7979 O2A     31.1198  12.3234  45.0247   O.co2    60 RES60   0.0000
  7980 C3      31.1198  15.9151  45.3382   C.2      60 RES60   0.0000
  7981 H3      31.1198  16.1594  44.4203   H        60 RES60   0.0000
  7982 O1A     32.1674   9.3256  42.5407   O.3      60 RES60   0.0000
  7983 O2A     33.0699  13.9049  41.4930   O.co2    60 RES60   0.0000
  7984 C3      36.6616  14.2184  41.4930   C.2      60 RES60   0.0000
  7985 H3      36.9059  13.3006  41.4930   H        60 RES60   0.0000
  7986 O2A     29.1696  13.9049  41.4930   O.co2    60 RES60   0.0000
  7987 C3      25.5779  14.2184  41.4930   C.2      60 RES60   0.0000
  7988 H3      25.3336  13.3006  41.4930   H        60 RES60   0.0000
  7989 O2A     29.1696   6.8416  41.4930   O.co2    60 RES60   0.0000
  7990 C3      25.5779   6.5281  41.4930   C.2      60 RES60   0.0000
  7991 H3      25.3336   7.4459  41.4930   H        60 RES60   0.0000
  7992 O2A     33.0699   6.8416  41.4930   O.co2    60 RES60   0.0000
  7993 C3      36.6616   6.5281  41.4930   C.2      60 RES60   0.0000
  7994 H3      36.9059   7.4459  41.4930   H        60 RES60   0.0000
  7995 O2A     34.6514  10.3733  39.5428   O.co2    60 RES60   0.0000
  7996 C2      35.3269  10.3733  37.2858   C.2      60 RES60   0.0000
  7997 C3      34.9649  10.3733  35.9512   C.2      60 RES60   0.0000
  7998 H3      34.0471  10.3733  35.7068   H        60 RES60   0.0000
  7999 C1      34.2689  10.3733  38.3439   C.2      60 RES60   0.0000
  8000 O2A     34.6514  10.3733  43.4432   O.co2    60 RES60   0.0000
  8001 C3      34.9649  10.3733  47.0348   C.2      60 RES60   0.0000
  8002 H3      34.0471  10.3733  47.2792   H        60 RES60   0.0000
  8003 O2A     27.5881  10.3733  43.4432   O.co2    60 RES60   0.0000
  8004 C3      27.2746  10.3733  47.0348   C.2      60 RES60   0.0000
  8005 H3      28.1924  10.3733  47.2792   H        60 RES60   0.0000
  8006 O2A     27.5881  10.3733  39.5428   O.co2    60 RES60   0.0000
  8007 C2      26.9126  10.3733  37.2858   C.2      60 RES60   0.0000
  8008 C3      27.2746  10.3733  35.9512   C.2      60 RES60   0.0000
  8009 H3      28.1924  10.3733  35.7068   H        60 RES60   0.0000
  8010 C1      27.9706  10.3733  38.3439   C.2      60 RES60   0.0000
  8011 O2A     29.1696  10.3733  37.9613   O.co2    60 RES60   0.0000
  8012 C3      25.5779  10.3733  37.6478   C.2      60 RES60   0.0000
  8013 H3      25.3336  10.3733  38.5657   H        60 RES60   0.0000
  8014 O2A     33.0699  10.3733  37.9613   O.co2    60 RES60   0.0000
  8015 C3      36.6616  10.3733  37.6478   C.2      60 RES60   0.0000
  8016 H3      36.9059  10.3733  38.5657   H        60 RES60   0.0000
  8017 C3      31.1198   3.8452  36.6616   C.2      60 RES60   0.0000
  8018 C3      31.1198   3.8452  46.3244   C.2      60 RES60   0.0000
  8019 C3      31.1198  16.9013  46.3244   C.2      60 RES60   0.0000
  8020 C3      31.1198  16.9013  36.6616   C.2      60 RES60   0.0000
  8021 C3      31.1198   5.5418  48.0211   C.2      60 RES60   0.0000
  8022 C3      31.1198  15.2047  48.0211   C.2      60 RES60   0.0000
  8023 C3      31.1198  15.2047  34.9649   C.2      60 RES60   0.0000
  8024 C3      31.1198   5.5418  34.9649   C.2      60 RES60   0.0000
  8025 C3      26.2883  10.3733  34.9649   C.2      60 RES60   0.0000
  8026 C3      35.9512  10.3733  34.9649   C.2      60 RES60   0.0000
  8027 C3      35.9512  10.3733  48.0211   C.2      60 RES60   0.0000
  8028 C3      26.2883  10.3733  48.0211   C.2      60 RES60   0.0000
  8029 C3      24.5917  10.3733  46.3244   C.2      60 RES60   0.0000
  8030 C3      24.5917  10.3733  36.6616   C.2      60 RES60   0.0000
  8031 C3      37.6478  10.3733  36.6616   C.2      60 RES60   0.0000
  8032 C3      37.6478  10.3733  46.3244   C.2      60 RES60   0.0000
  8033 C3      24.5917   5.5418  41.4930   C.2      60 RES60   0.0000
  8034 C3      24.5917  15.2047  41.4930   C.2      60 RES60   0.0000
  8035 C3      37.6478  15.2047  41.4930   C.2      60 RES60   0.0000
  8036 C3      37.6478   5.5418  41.4930   C.2      60 RES60   0.0000
  8037 C3      26.2883   3.8452  41.4930   C.2      60 RES60   0.0000
  8038 C3      35.9512   3.8452  41.4930   C.2      60 RES60   0.0000
  8039 C3      35.9512  16.9013  41.4930   C.2      60 RES60   0.0000
  8040 C3      26.2883  16.9013  41.4930   C.2      60 RES60   0.0000
  8041 Zr1     31.1198  31.1198   2.4844   Zr       61 RES61   0.0000
  8042 O2A     33.0699  31.1198   3.5317   O.co2    61 RES61   0.0000
  8043 C2      35.3269  31.1198   4.2072   C.2      61 RES61   0.0000
  8044 C3      36.6616  31.1198   3.8452   C.2      61 RES61   0.0000
  8045 H3      36.9059  31.1198   2.9273   H        61 RES61   0.0000
  8046 O1A     30.0721  30.0721   1.0477   O.3      61 RES61   0.0000
  8047 C1      34.2689  31.1198   3.1491   C.2      61 RES61   0.0000
  8048 O2A     29.1696  31.1198   3.5317   O.co2    61 RES61   0.0000
  8049 C2      26.9126  31.1198   4.2072   C.2      61 RES61   0.0000
  8050 C3      25.5779  31.1198   3.8452   C.2      61 RES61   0.0000
  8051 H3      25.3336  31.1198   2.9273   H        61 RES61   0.0000
  8052 O1A     32.1674  32.1674   1.0477   O.3      61 RES61   0.0000
  8053 C1      27.9706  31.1198   3.1491   C.2      61 RES61   0.0000
  8054 Zr1     33.6041  31.1198   0.0000   Zr       61 RES61   0.0000
  8055 O2A     34.6514  33.0699   0.0000   O.co2    61 RES61   0.0000
  8056 C2      35.3269  35.3269   0.0000   C.2      61 RES61   0.0000
  8057 C3      34.9649  36.6616   0.0000   C.2      61 RES61   0.0000
  8058 H3      34.0471  36.9059   0.0000   H        61 RES61   0.0000
  8059 O1A     32.1674  30.0721  -1.0477   O.3      61 RES61   0.0000
  8060 C1      34.2689  34.2689   0.0000   C.2      61 RES61   0.0000
  8061 O2A     34.6514  29.1696   0.0000   O.co2    61 RES61   0.0000
  8062 C2      35.3269  26.9126   0.0000   C.2      61 RES61   0.0000
  8063 C3      34.9649  25.5779   0.0000   C.2      61 RES61   0.0000
  8064 H3      34.0471  25.3336   0.0000   H        61 RES61   0.0000
  8065 C1      34.2689  27.9706   0.0000   C.2      61 RES61   0.0000
  8066 Zr1     28.6354  31.1198   0.0000   Zr       61 RES61   0.0000
  8067 O2A     27.5881  29.1696   0.0000   O.co2    61 RES61   0.0000
  8068 C2      26.9126  26.9126   0.0000   C.2      61 RES61   0.0000
  8069 C3      27.2746  25.5779   0.0000   C.2      61 RES61   0.0000
  8070 H3      28.1924  25.3336   0.0000   H        61 RES61   0.0000
  8071 O1A     30.0721  32.1674  -1.0477   O.3      61 RES61   0.0000
  8072 C1      27.9706  27.9706   0.0000   C.2      61 RES61   0.0000
  8073 O2A     27.5881  33.0699   0.0000   O.co2    61 RES61   0.0000
  8074 C2      26.9126  35.3269   0.0000   C.2      61 RES61   0.0000
  8075 C3      27.2746  36.6616   0.0000   C.2      61 RES61   0.0000
  8076 H3      28.1924  36.9059   0.0000   H        61 RES61   0.0000
  8077 C1      27.9706  34.2689   0.0000   C.2      61 RES61   0.0000
  8078 Zr1     31.1198  33.6041   0.0000   Zr       61 RES61   0.0000
  8079 O2A     31.1198  34.6514   1.9502   O.co2    61 RES61   0.0000
  8080 C2      31.1198  35.3269   4.2072   C.2      61 RES61   0.0000
  8081 C3      31.1198  34.9649   5.5418   C.2      61 RES61   0.0000
  8082 H3      31.1198  34.0471   5.7862   H        61 RES61   0.0000
  8083 C1      31.1198  34.2689   3.1491   C.2      61 RES61   0.0000
  8084 O2A     31.1198  34.6514  -1.9502   O.co2    61 RES61   0.0000
  8085 C2      31.1198  35.3269  -4.2072   C.2      61 RES61   0.0000
  8086 C3      31.1198  34.9649  -5.5418   C.2      61 RES61   0.0000
  8087 H3      31.1198  34.0471  -5.7862   H        61 RES61   0.0000
  8088 C1      31.1198  34.2689  -3.1491   C.2      61 RES61   0.0000
  8089 Zr1     31.1198  28.6354   0.0000   Zr       61 RES61   0.0000
  8090 O2A     31.1198  27.5881  -1.9502   O.co2    61 RES61   0.0000
  8091 C2      31.1198  26.9126  -4.2072   C.2      61 RES61   0.0000
  8092 C3      31.1198  27.2746  -5.5418   C.2      61 RES61   0.0000
  8093 H3      31.1198  28.1924  -5.7862   H        61 RES61   0.0000
  8094 C1      31.1198  27.9706  -3.1491   C.2      61 RES61   0.0000
  8095 O2A     31.1198  27.5881   1.9502   O.co2    61 RES61   0.0000
  8096 C2      31.1198  26.9126   4.2072   C.2      61 RES61   0.0000
  8097 C3      31.1198  27.2746   5.5418   C.2      61 RES61   0.0000
  8098 H3      31.1198  28.1924   5.7862   H        61 RES61   0.0000
  8099 C1      31.1198  27.9706   3.1491   C.2      61 RES61   0.0000
  8100 Zr1     31.1198  31.1198  -2.4844   Zr       61 RES61   0.0000
  8101 O2A     31.1198  33.0699  -3.5317   O.co2    61 RES61   0.0000
  8102 C3      31.1198  36.6616  -3.8452   C.2      61 RES61   0.0000
  8103 H3      31.1198  36.9059  -2.9273   H        61 RES61   0.0000
  8104 O1A     30.0721  30.0721  -1.0477   O.3      61 RES61   0.0000
  8105 O2A     31.1198  29.1696  -3.5317   O.co2    61 RES61   0.0000
  8106 C3      31.1198  25.5779  -3.8452   C.2      61 RES61   0.0000
  8107 H3      31.1198  25.3336  -2.9273   H        61 RES61   0.0000
  8108 O1A     32.1674  32.1674  -1.0477   O.3      61 RES61   0.0000
  8109 O2A     31.1198  29.1696   3.5317   O.co2    61 RES61   0.0000
  8110 C3      31.1198  25.5779   3.8452   C.2      61 RES61   0.0000
  8111 H3      31.1198  25.3336   2.9273   H        61 RES61   0.0000
  8112 O1A     30.0721  32.1674   1.0477   O.3      61 RES61   0.0000
  8113 O2A     31.1198  33.0699   3.5317   O.co2    61 RES61   0.0000
  8114 C3      31.1198  36.6616   3.8452   C.2      61 RES61   0.0000
  8115 H3      31.1198  36.9059   2.9273   H        61 RES61   0.0000
  8116 O1A     32.1674  30.0721   1.0477   O.3      61 RES61   0.0000
  8117 O2A     33.0699  34.6514   0.0000   O.co2    61 RES61   0.0000
  8118 C3      36.6616  34.9649   0.0000   C.2      61 RES61   0.0000
  8119 H3      36.9059  34.0471   0.0000   H        61 RES61   0.0000
  8120 O2A     29.1696  34.6514   0.0000   O.co2    61 RES61   0.0000
  8121 C3      25.5779  34.9649   0.0000   C.2      61 RES61   0.0000
  8122 H3      25.3336  34.0471   0.0000   H        61 RES61   0.0000
  8123 O2A     29.1696  27.5881   0.0000   O.co2    61 RES61   0.0000
  8124 C3      25.5779  27.2746   0.0000   C.2      61 RES61   0.0000
  8125 H3      25.3336  28.1924   0.0000   H        61 RES61   0.0000
  8126 O2A     33.0699  27.5881   0.0000   O.co2    61 RES61   0.0000
  8127 C3      36.6616  27.2746   0.0000   C.2      61 RES61   0.0000
  8128 H3      36.9059  28.1924   0.0000   H        61 RES61   0.0000
  8129 O2A     34.6514  31.1198  -1.9502   O.co2    61 RES61   0.0000
  8130 C2      35.3269  31.1198  -4.2072   C.2      61 RES61   0.0000
  8131 C3      34.9649  31.1198  -5.5418   C.2      61 RES61   0.0000
  8132 H3      34.0471  31.1198  -5.7862   H        61 RES61   0.0000
  8133 C1      34.2689  31.1198  -3.1491   C.2      61 RES61   0.0000
  8134 O2A     34.6514  31.1198   1.9502   O.co2    61 RES61   0.0000
  8135 C3      34.9649  31.1198   5.5418   C.2      61 RES61   0.0000
  8136 H3      34.0471  31.1198   5.7862   H        61 RES61   0.0000
  8137 O2A     27.5881  31.1198   1.9502   O.co2    61 RES61   0.0000
  8138 C3      27.2746  31.1198   5.5418   C.2      61 RES61   0.0000
  8139 H3      28.1924  31.1198   5.7862   H        61 RES61   0.0000
  8140 O2A     27.5881  31.1198  -1.9502   O.co2    61 RES61   0.0000
  8141 C2      26.9126  31.1198  -4.2072   C.2      61 RES61   0.0000
  8142 C3      27.2746  31.1198  -5.5418   C.2      61 RES61   0.0000
  8143 H3      28.1924  31.1198  -5.7862   H        61 RES61   0.0000
  8144 C1      27.9706  31.1198  -3.1491   C.2      61 RES61   0.0000
  8145 O2A     29.1696  31.1198  -3.5317   O.co2    61 RES61   0.0000
  8146 C3      25.5779  31.1198  -3.8452   C.2      61 RES61   0.0000
  8147 H3      25.3336  31.1198  -2.9273   H        61 RES61   0.0000
  8148 O2A     33.0699  31.1198  -3.5317   O.co2    61 RES61   0.0000
  8149 C3      36.6616  31.1198  -3.8452   C.2      61 RES61   0.0000
  8150 H3      36.9059  31.1198  -2.9273   H        61 RES61   0.0000
  8151 C3      31.1198  24.5917  -4.8314   C.2      61 RES61   0.0000
  8152 C3      31.1198  24.5917   4.8314   C.2      61 RES61   0.0000
  8153 C3      31.1198  37.6478   4.8314   C.2      61 RES61   0.0000
  8154 C3      31.1198  37.6478  -4.8314   C.2      61 RES61   0.0000
  8155 C3      31.1198  26.2883   6.5281   C.2      61 RES61   0.0000
  8156 C3      31.1198  35.9512   6.5281   C.2      61 RES61   0.0000
  8157 C3      31.1198  35.9512  -6.5281   C.2      61 RES61   0.0000
  8158 C3      31.1198  26.2883  -6.5281   C.2      61 RES61   0.0000
  8159 C3      26.2883  31.1198  -6.5281   C.2      61 RES61   0.0000
  8160 C3      35.9512  31.1198  -6.5281   C.2      61 RES61   0.0000
  8161 C3      35.9512  31.1198   6.5281   C.2      61 RES61   0.0000
  8162 C3      26.2883  31.1198   6.5281   C.2      61 RES61   0.0000
  8163 C3      24.5917  31.1198   4.8314   C.2      61 RES61   0.0000
  8164 C3      24.5917  31.1198  -4.8314   C.2      61 RES61   0.0000
  8165 C3      37.6478  31.1198  -4.8314   C.2      61 RES61   0.0000
  8166 C3      37.6478  31.1198   4.8314   C.2      61 RES61   0.0000
  8167 C3      24.5917  26.2883   0.0000   C.2      61 RES61   0.0000
  8168 C3      24.5917  35.9512   0.0000   C.2      61 RES61   0.0000
  8169 C3      37.6478  35.9512   0.0000   C.2      61 RES61   0.0000
  8170 C3      37.6478  26.2883   0.0000   C.2      61 RES61   0.0000
  8171 C3      26.2883  24.5917   0.0000   C.2      61 RES61   0.0000
  8172 C3      35.9512  24.5917   0.0000   C.2      61 RES61   0.0000
  8173 C3      35.9512  37.6478   0.0000   C.2      61 RES61   0.0000
  8174 C3      26.2883  37.6478   0.0000   C.2      61 RES61   0.0000
  8175 Zr1     31.1198  31.1198  23.2309   Zr       62 RES62   0.0000
  8176 O2A     33.0699  31.1198  24.2782   O.co2    62 RES62   0.0000
  8177 C2      35.3269  31.1198  24.9537   C.2      62 RES62   0.0000
  8178 C3      36.6616  31.1198  24.5917   C.2      62 RES62   0.0000
  8179 H3      36.9059  31.1198  23.6738   H        62 RES62   0.0000
  8180 O1A     30.0721  30.0721  21.7942   O.3      62 RES62   0.0000
  8181 C1      34.2689  31.1198  23.8956   C.2      62 RES62   0.0000
  8182 O2A     29.1696  31.1198  24.2782   O.co2    62 RES62   0.0000
  8183 C2      26.9126  31.1198  24.9537   C.2      62 RES62   0.0000
  8184 C3      25.5779  31.1198  24.5917   C.2      62 RES62   0.0000
  8185 H3      25.3336  31.1198  23.6738   H        62 RES62   0.0000
  8186 O1A     32.1674  32.1674  21.7942   O.3      62 RES62   0.0000
  8187 C1      27.9706  31.1198  23.8956   C.2      62 RES62   0.0000
  8188 Zr1     33.6041  31.1198  20.7465   Zr       62 RES62   0.0000
  8189 O2A     34.6514  33.0699  20.7465   O.co2    62 RES62   0.0000
  8190 C2      35.3269  35.3269  20.7465   C.2      62 RES62   0.0000
  8191 C3      34.9649  36.6616  20.7465   C.2      62 RES62   0.0000
  8192 H3      34.0471  36.9059  20.7465   H        62 RES62   0.0000
  8193 O1A     32.1674  30.0721  19.6988   O.3      62 RES62   0.0000
  8194 C1      34.2689  34.2689  20.7465   C.2      62 RES62   0.0000
  8195 O2A     34.6514  29.1696  20.7465   O.co2    62 RES62   0.0000
  8196 C2      35.3269  26.9126  20.7465   C.2      62 RES62   0.0000
  8197 C3      34.9649  25.5779  20.7465   C.2      62 RES62   0.0000
  8198 H3      34.0471  25.3336  20.7465   H        62 RES62   0.0000
  8199 C1      34.2689  27.9706  20.7465   C.2      62 RES62   0.0000
  8200 Zr1     28.6354  31.1198  20.7465   Zr       62 RES62   0.0000
  8201 O2A     27.5881  29.1696  20.7465   O.co2    62 RES62   0.0000
  8202 C2      26.9126  26.9126  20.7465   C.2      62 RES62   0.0000
  8203 C3      27.2746  25.5779  20.7465   C.2      62 RES62   0.0000
  8204 H3      28.1924  25.3336  20.7465   H        62 RES62   0.0000
  8205 O1A     30.0721  32.1674  19.6988   O.3      62 RES62   0.0000
  8206 C1      27.9706  27.9706  20.7465   C.2      62 RES62   0.0000
  8207 O2A     27.5881  33.0699  20.7465   O.co2    62 RES62   0.0000
  8208 C2      26.9126  35.3269  20.7465   C.2      62 RES62   0.0000
  8209 C3      27.2746  36.6616  20.7465   C.2      62 RES62   0.0000
  8210 H3      28.1924  36.9059  20.7465   H        62 RES62   0.0000
  8211 C1      27.9706  34.2689  20.7465   C.2      62 RES62   0.0000
  8212 Zr1     31.1198  33.6041  20.7465   Zr       62 RES62   0.0000
  8213 O2A     31.1198  34.6514  22.6967   O.co2    62 RES62   0.0000
  8214 C2      31.1198  35.3269  24.9537   C.2      62 RES62   0.0000
  8215 C3      31.1198  34.9649  26.2883   C.2      62 RES62   0.0000
  8216 H3      31.1198  34.0471  26.5327   H        62 RES62   0.0000
  8217 C1      31.1198  34.2689  23.8956   C.2      62 RES62   0.0000
  8218 O2A     31.1198  34.6514  18.7963   O.co2    62 RES62   0.0000
  8219 C2      31.1198  35.3269  16.5393   C.2      62 RES62   0.0000
  8220 C3      31.1198  34.9649  15.2047   C.2      62 RES62   0.0000
  8221 H3      31.1198  34.0471  14.9603   H        62 RES62   0.0000
  8222 C1      31.1198  34.2689  17.5974   C.2      62 RES62   0.0000
  8223 Zr1     31.1198  28.6354  20.7465   Zr       62 RES62   0.0000
  8224 O2A     31.1198  27.5881  18.7963   O.co2    62 RES62   0.0000
  8225 C2      31.1198  26.9126  16.5393   C.2      62 RES62   0.0000
  8226 C3      31.1198  27.2746  15.2047   C.2      62 RES62   0.0000
  8227 H3      31.1198  28.1924  14.9603   H        62 RES62   0.0000
  8228 C1      31.1198  27.9706  17.5974   C.2      62 RES62   0.0000
  8229 O2A     31.1198  27.5881  22.6967   O.co2    62 RES62   0.0000
  8230 C2      31.1198  26.9126  24.9537   C.2      62 RES62   0.0000
  8231 C3      31.1198  27.2746  26.2883   C.2      62 RES62   0.0000
  8232 H3      31.1198  28.1924  26.5327   H        62 RES62   0.0000
  8233 C1      31.1198  27.9706  23.8956   C.2      62 RES62   0.0000
  8234 Zr1     31.1198  31.1198  18.2621   Zr       62 RES62   0.0000
  8235 O2A     31.1198  33.0699  17.2148   O.co2    62 RES62   0.0000
  8236 C3      31.1198  36.6616  16.9013   C.2      62 RES62   0.0000
  8237 H3      31.1198  36.9059  17.8192   H        62 RES62   0.0000
  8238 O1A     30.0721  30.0721  19.6988   O.3      62 RES62   0.0000
  8239 O2A     31.1198  29.1696  17.2148   O.co2    62 RES62   0.0000
  8240 C3      31.1198  25.5779  16.9013   C.2      62 RES62   0.0000
  8241 H3      31.1198  25.3336  17.8192   H        62 RES62   0.0000
  8242 O1A     32.1674  32.1674  19.6988   O.3      62 RES62   0.0000
  8243 O2A     31.1198  29.1696  24.2782   O.co2    62 RES62   0.0000
  8244 C3      31.1198  25.5779  24.5917   C.2      62 RES62   0.0000
  8245 H3      31.1198  25.3336  23.6738   H        62 RES62   0.0000
  8246 O1A     30.0721  32.1674  21.7942   O.3      62 RES62   0.0000
  8247 O2A     31.1198  33.0699  24.2782   O.co2    62 RES62   0.0000
  8248 C3      31.1198  36.6616  24.5917   C.2      62 RES62   0.0000
  8249 H3      31.1198  36.9059  23.6738   H        62 RES62   0.0000
  8250 O1A     32.1674  30.0721  21.7942   O.3      62 RES62   0.0000
  8251 O2A     33.0699  34.6514  20.7465   O.co2    62 RES62   0.0000
  8252 C3      36.6616  34.9649  20.7465   C.2      62 RES62   0.0000
  8253 H3      36.9059  34.0471  20.7465   H        62 RES62   0.0000
  8254 O2A     29.1696  34.6514  20.7465   O.co2    62 RES62   0.0000
  8255 C3      25.5779  34.9649  20.7465   C.2      62 RES62   0.0000
  8256 H3      25.3336  34.0471  20.7465   H        62 RES62   0.0000
  8257 O2A     29.1696  27.5881  20.7465   O.co2    62 RES62   0.0000
  8258 C3      25.5779  27.2746  20.7465   C.2      62 RES62   0.0000
  8259 H3      25.3336  28.1924  20.7465   H        62 RES62   0.0000
  8260 O2A     33.0699  27.5881  20.7465   O.co2    62 RES62   0.0000
  8261 C3      36.6616  27.2746  20.7465   C.2      62 RES62   0.0000
  8262 H3      36.9059  28.1924  20.7465   H        62 RES62   0.0000
  8263 O2A     34.6514  31.1198  18.7963   O.co2    62 RES62   0.0000
  8264 C2      35.3269  31.1198  16.5393   C.2      62 RES62   0.0000
  8265 C3      34.9649  31.1198  15.2047   C.2      62 RES62   0.0000
  8266 H3      34.0471  31.1198  14.9603   H        62 RES62   0.0000
  8267 C1      34.2689  31.1198  17.5974   C.2      62 RES62   0.0000
  8268 O2A     34.6514  31.1198  22.6967   O.co2    62 RES62   0.0000
  8269 C3      34.9649  31.1198  26.2883   C.2      62 RES62   0.0000
  8270 H3      34.0471  31.1198  26.5327   H        62 RES62   0.0000
  8271 O2A     27.5881  31.1198  22.6967   O.co2    62 RES62   0.0000
  8272 C3      27.2746  31.1198  26.2883   C.2      62 RES62   0.0000
  8273 H3      28.1924  31.1198  26.5327   H        62 RES62   0.0000
  8274 O2A     27.5881  31.1198  18.7963   O.co2    62 RES62   0.0000
  8275 C2      26.9126  31.1198  16.5393   C.2      62 RES62   0.0000
  8276 C3      27.2746  31.1198  15.2047   C.2      62 RES62   0.0000
  8277 H3      28.1924  31.1198  14.9603   H        62 RES62   0.0000
  8278 C1      27.9706  31.1198  17.5974   C.2      62 RES62   0.0000
  8279 O2A     29.1696  31.1198  17.2148   O.co2    62 RES62   0.0000
  8280 C3      25.5779  31.1198  16.9013   C.2      62 RES62   0.0000
  8281 H3      25.3336  31.1198  17.8192   H        62 RES62   0.0000
  8282 O2A     33.0699  31.1198  17.2148   O.co2    62 RES62   0.0000
  8283 C3      36.6616  31.1198  16.9013   C.2      62 RES62   0.0000
  8284 H3      36.9059  31.1198  17.8192   H        62 RES62   0.0000
  8285 C3      31.1198  24.5917  15.9151   C.2      62 RES62   0.0000
  8286 C3      31.1198  24.5917  25.5779   C.2      62 RES62   0.0000
  8287 C3      31.1198  37.6478  25.5779   C.2      62 RES62   0.0000
  8288 C3      31.1198  37.6478  15.9151   C.2      62 RES62   0.0000
  8289 C3      31.1198  26.2883  27.2746   C.2      62 RES62   0.0000
  8290 C3      31.1198  35.9512  27.2746   C.2      62 RES62   0.0000
  8291 C3      31.1198  35.9512  14.2184   C.2      62 RES62   0.0000
  8292 C3      31.1198  26.2883  14.2184   C.2      62 RES62   0.0000
  8293 C3      26.2883  31.1198  14.2184   C.2      62 RES62   0.0000
  8294 C3      35.9512  31.1198  14.2184   C.2      62 RES62   0.0000
  8295 C3      35.9512  31.1198  27.2746   C.2      62 RES62   0.0000
  8296 C3      26.2883  31.1198  27.2746   C.2      62 RES62   0.0000
  8297 C3      24.5917  31.1198  25.5779   C.2      62 RES62   0.0000
  8298 C3      24.5917  31.1198  15.9151   C.2      62 RES62   0.0000
  8299 C3      37.6478  31.1198  15.9151   C.2      62 RES62   0.0000
  8300 C3      37.6478  31.1198  25.5779   C.2      62 RES62   0.0000
  8301 C3      24.5917  26.2883  20.7465   C.2      62 RES62   0.0000
  8302 C3      24.5917  35.9512  20.7465   C.2      62 RES62   0.0000
  8303 C3      37.6478  35.9512  20.7465   C.2      62 RES62   0.0000
  8304 C3      37.6478  26.2883  20.7465   C.2      62 RES62   0.0000
  8305 C3      26.2883  24.5917  20.7465   C.2      62 RES62   0.0000
  8306 C3      35.9512  24.5917  20.7465   C.2      62 RES62   0.0000
  8307 C3      35.9512  37.6478  20.7465   C.2      62 RES62   0.0000
  8308 C3      26.2883  37.6478  20.7465   C.2      62 RES62   0.0000
  8309 Zr1     31.1198  31.1198  43.9774   Zr       63 RES63   0.0000
  8310 O2A     33.0699  31.1198  45.0247   O.co2    63 RES63   0.0000
  8311 C2      35.3269  31.1198  45.7002   C.2      63 RES63   0.0000
  8312 C3      36.6616  31.1198  45.3382   C.2      63 RES63   0.0000
  8313 H3      36.9059  31.1198  44.4203   H        63 RES63   0.0000
  8314 O1A     30.0721  30.0721  42.5407   O.3      63 RES63   0.0000
  8315 C1      34.2689  31.1198  44.6421   C.2      63 RES63   0.0000
  8316 O2A     29.1696  31.1198  45.0247   O.co2    63 RES63   0.0000
  8317 C2      26.9126  31.1198  45.7002   C.2      63 RES63   0.0000
  8318 C3      25.5779  31.1198  45.3382   C.2      63 RES63   0.0000
  8319 H3      25.3336  31.1198  44.4203   H        63 RES63   0.0000
  8320 O1A     32.1674  32.1674  42.5407   O.3      63 RES63   0.0000
  8321 C1      27.9706  31.1198  44.6421   C.2      63 RES63   0.0000
  8322 Zr1     33.6041  31.1198  41.4930   Zr       63 RES63   0.0000
  8323 O2A     34.6514  33.0699  41.4930   O.co2    63 RES63   0.0000
  8324 C2      35.3269  35.3269  41.4930   C.2      63 RES63   0.0000
  8325 C3      34.9649  36.6616  41.4930   C.2      63 RES63   0.0000
  8326 H3      34.0471  36.9059  41.4930   H        63 RES63   0.0000
  8327 O1A     32.1674  30.0721  40.4453   O.3      63 RES63   0.0000
  8328 C1      34.2689  34.2689  41.4930   C.2      63 RES63   0.0000
  8329 O2A     34.6514  29.1696  41.4930   O.co2    63 RES63   0.0000
  8330 C2      35.3269  26.9126  41.4930   C.2      63 RES63   0.0000
  8331 C3      34.9649  25.5779  41.4930   C.2      63 RES63   0.0000
  8332 H3      34.0471  25.3336  41.4930   H        63 RES63   0.0000
  8333 C1      34.2689  27.9706  41.4930   C.2      63 RES63   0.0000
  8334 Zr1     28.6354  31.1198  41.4930   Zr       63 RES63   0.0000
  8335 O2A     27.5881  29.1696  41.4930   O.co2    63 RES63   0.0000
  8336 C2      26.9126  26.9126  41.4930   C.2      63 RES63   0.0000
  8337 C3      27.2746  25.5779  41.4930   C.2      63 RES63   0.0000
  8338 H3      28.1924  25.3336  41.4930   H        63 RES63   0.0000
  8339 O1A     30.0721  32.1674  40.4453   O.3      63 RES63   0.0000
  8340 C1      27.9706  27.9706  41.4930   C.2      63 RES63   0.0000
  8341 O2A     27.5881  33.0699  41.4930   O.co2    63 RES63   0.0000
  8342 C2      26.9126  35.3269  41.4930   C.2      63 RES63   0.0000
  8343 C3      27.2746  36.6616  41.4930   C.2      63 RES63   0.0000
  8344 H3      28.1924  36.9059  41.4930   H        63 RES63   0.0000
  8345 C1      27.9706  34.2689  41.4930   C.2      63 RES63   0.0000
  8346 Zr1     31.1198  33.6041  41.4930   Zr       63 RES63   0.0000
  8347 O2A     31.1198  34.6514  43.4432   O.co2    63 RES63   0.0000
  8348 C2      31.1198  35.3269  45.7002   C.2      63 RES63   0.0000
  8349 C3      31.1198  34.9649  47.0348   C.2      63 RES63   0.0000
  8350 H3      31.1198  34.0471  47.2792   H        63 RES63   0.0000
  8351 C1      31.1198  34.2689  44.6421   C.2      63 RES63   0.0000
  8352 O2A     31.1198  34.6514  39.5428   O.co2    63 RES63   0.0000
  8353 C2      31.1198  35.3269  37.2858   C.2      63 RES63   0.0000
  8354 C3      31.1198  34.9649  35.9512   C.2      63 RES63   0.0000
  8355 H3      31.1198  34.0471  35.7068   H        63 RES63   0.0000
  8356 C1      31.1198  34.2689  38.3439   C.2      63 RES63   0.0000
  8357 Zr1     31.1198  28.6354  41.4930   Zr       63 RES63   0.0000
  8358 O2A     31.1198  27.5881  39.5428   O.co2    63 RES63   0.0000
  8359 C2      31.1198  26.9126  37.2858   C.2      63 RES63   0.0000
  8360 C3      31.1198  27.2746  35.9512   C.2      63 RES63   0.0000
  8361 H3      31.1198  28.1924  35.7068   H        63 RES63   0.0000
  8362 C1      31.1198  27.9706  38.3439   C.2      63 RES63   0.0000
  8363 O2A     31.1198  27.5881  43.4432   O.co2    63 RES63   0.0000
  8364 C2      31.1198  26.9126  45.7002   C.2      63 RES63   0.0000
  8365 C3      31.1198  27.2746  47.0348   C.2      63 RES63   0.0000
  8366 H3      31.1198  28.1924  47.2792   H        63 RES63   0.0000
  8367 C1      31.1198  27.9706  44.6421   C.2      63 RES63   0.0000
  8368 Zr1     31.1198  31.1198  39.0086   Zr       63 RES63   0.0000
  8369 O2A     31.1198  33.0699  37.9613   O.co2    63 RES63   0.0000
  8370 C3      31.1198  36.6616  37.6478   C.2      63 RES63   0.0000
  8371 H3      31.1198  36.9059  38.5657   H        63 RES63   0.0000
  8372 O1A     30.0721  30.0721  40.4453   O.3      63 RES63   0.0000
  8373 O2A     31.1198  29.1696  37.9613   O.co2    63 RES63   0.0000
  8374 C3      31.1198  25.5779  37.6478   C.2      63 RES63   0.0000
  8375 H3      31.1198  25.3336  38.5657   H        63 RES63   0.0000
  8376 O1A     32.1674  32.1674  40.4453   O.3      63 RES63   0.0000
  8377 O2A     31.1198  29.1696  45.0247   O.co2    63 RES63   0.0000
  8378 C3      31.1198  25.5779  45.3382   C.2      63 RES63   0.0000
  8379 H3      31.1198  25.3336  44.4203   H        63 RES63   0.0000
  8380 O1A     30.0721  32.1674  42.5407   O.3      63 RES63   0.0000
  8381 O2A     31.1198  33.0699  45.0247   O.co2    63 RES63   0.0000
  8382 C3      31.1198  36.6616  45.3382   C.2      63 RES63   0.0000
  8383 H3      31.1198  36.9059  44.4203   H        63 RES63   0.0000
  8384 O1A     32.1674  30.0721  42.5407   O.3      63 RES63   0.0000
  8385 O2A     33.0699  34.6514  41.4930   O.co2    63 RES63   0.0000
  8386 C3      36.6616  34.9649  41.4930   C.2      63 RES63   0.0000
  8387 H3      36.9059  34.0471  41.4930   H        63 RES63   0.0000
  8388 O2A     29.1696  34.6514  41.4930   O.co2    63 RES63   0.0000
  8389 C3      25.5779  34.9649  41.4930   C.2      63 RES63   0.0000
  8390 H3      25.3336  34.0471  41.4930   H        63 RES63   0.0000
  8391 O2A     29.1696  27.5881  41.4930   O.co2    63 RES63   0.0000
  8392 C3      25.5779  27.2746  41.4930   C.2      63 RES63   0.0000
  8393 H3      25.3336  28.1924  41.4930   H        63 RES63   0.0000
  8394 O2A     33.0699  27.5881  41.4930   O.co2    63 RES63   0.0000
  8395 C3      36.6616  27.2746  41.4930   C.2      63 RES63   0.0000
  8396 H3      36.9059  28.1924  41.4930   H        63 RES63   0.0000
  8397 O2A     34.6514  31.1198  39.5428   O.co2    63 RES63   0.0000
  8398 C2      35.3269  31.1198  37.2858   C.2      63 RES63   0.0000
  8399 C3      34.9649  31.1198  35.9512   C.2      63 RES63   0.0000
  8400 H3      34.0471  31.1198  35.7068   H        63 RES63   0.0000
  8401 C1      34.2689  31.1198  38.3439   C.2      63 RES63   0.0000
  8402 O2A     34.6514  31.1198  43.4432   O.co2    63 RES63   0.0000
  8403 C3      34.9649  31.1198  47.0348   C.2      63 RES63   0.0000
  8404 H3      34.0471  31.1198  47.2792   H        63 RES63   0.0000
  8405 O2A     27.5881  31.1198  43.4432   O.co2    63 RES63   0.0000
  8406 C3      27.2746  31.1198  47.0348   C.2      63 RES63   0.0000
  8407 H3      28.1924  31.1198  47.2792   H        63 RES63   0.0000
  8408 O2A     27.5881  31.1198  39.5428   O.co2    63 RES63   0.0000
  8409 C2      26.9126  31.1198  37.2858   C.2      63 RES63   0.0000
  8410 C3      27.2746  31.1198  35.9512   C.2      63 RES63   0.0000
  8411 H3      28.1924  31.1198  35.7068   H        63 RES63   0.0000
  8412 C1      27.9706  31.1198  38.3439   C.2      63 RES63   0.0000
  8413 O2A     29.1696  31.1198  37.9613   O.co2    63 RES63   0.0000
  8414 C3      25.5779  31.1198  37.6478   C.2      63 RES63   0.0000
  8415 H3      25.3336  31.1198  38.5657   H        63 RES63   0.0000
  8416 O2A     33.0699  31.1198  37.9613   O.co2    63 RES63   0.0000
  8417 C3      36.6616  31.1198  37.6478   C.2      63 RES63   0.0000
  8418 H3      36.9059  31.1198  38.5657   H        63 RES63   0.0000
  8419 C3      31.1198  24.5917  36.6616   C.2      63 RES63   0.0000
  8420 C3      31.1198  24.5917  46.3244   C.2      63 RES63   0.0000
  8421 C3      31.1198  37.6478  46.3244   C.2      63 RES63   0.0000
  8422 C3      31.1198  37.6478  36.6616   C.2      63 RES63   0.0000
  8423 C3      31.1198  26.2883  48.0211   C.2      63 RES63   0.0000
  8424 C3      31.1198  35.9512  48.0211   C.2      63 RES63   0.0000
  8425 C3      31.1198  35.9512  34.9649   C.2      63 RES63   0.0000
  8426 C3      31.1198  26.2883  34.9649   C.2      63 RES63   0.0000
  8427 C3      26.2883  31.1198  34.9649   C.2      63 RES63   0.0000
  8428 C3      35.9512  31.1198  34.9649   C.2      63 RES63   0.0000
  8429 C3      35.9512  31.1198  48.0211   C.2      63 RES63   0.0000
  8430 C3      26.2883  31.1198  48.0211   C.2      63 RES63   0.0000
  8431 C3      24.5917  31.1198  46.3244   C.2      63 RES63   0.0000
  8432 C3      24.5917  31.1198  36.6616   C.2      63 RES63   0.0000
  8433 C3      37.6478  31.1198  36.6616   C.2      63 RES63   0.0000
  8434 C3      37.6478  31.1198  46.3244   C.2      63 RES63   0.0000
  8435 C3      24.5917  26.2883  41.4930   C.2      63 RES63   0.0000
  8436 C3      24.5917  35.9512  41.4930   C.2      63 RES63   0.0000
  8437 C3      37.6478  35.9512  41.4930   C.2      63 RES63   0.0000
  8438 C3      37.6478  26.2883  41.4930   C.2      63 RES63   0.0000
  8439 C3      26.2883  24.5917  41.4930   C.2      63 RES63   0.0000
  8440 C3      35.9512  24.5917  41.4930   C.2      63 RES63   0.0000
  8441 C3      35.9512  37.6478  41.4930   C.2      63 RES63   0.0000
  8442 C3      26.2883  37.6478  41.4930   C.2      63 RES63   0.0000
  8443 O3      17.6117  17.6117   3.1348   O.3      64 RES64   0.0000
  8444 O3      17.6117  17.6117  23.8813   O.3      65 RES65   0.0000
  8445 O3      17.6117  38.3582   3.1348   O.3      66 RES66   0.0000
  8446 O3      17.6117  38.3582  23.8813   O.3      67 RES67   0.0000
  8447 O3      38.3582  17.6117   3.1348   O.3      68 RES68   0.0000
  8448 O3      38.3582  17.6117  23.8813   O.3      69 RES69   0.0000
  8449 O3      38.3582  38.3582   3.1348   O.3      70 RES70   0.0000
  8450 O3      38.3582  38.3582  23.8813   O.3      71 RES71   0.0000
  8451 O3       3.1348   3.1348   3.1348   O.3      72 RES72   0.0000
  8452 O3       3.1348   3.1348  23.8813   O.3      73 RES73   0.0000
  8453 O3       3.1348  23.8813   3.1348   O.3      74 RES74   0.0000
  8454 O3       3.1348  23.8813  23.8813   O.3      75 RES75   0.0000
  8455 O3      23.8813   3.1348   3.1348   O.3      76 RES76   0.0000
  8456 O3      23.8813   3.1348  23.8813   O.3      77 RES77   0.0000
  8457 O3      23.8813  23.8813   3.1348   O.3      78 RES78   0.0000
  8458 O3      23.8813  23.8813  23.8813   O.3      79 RES79   0.0000
  8459 O3       3.1348  17.6117  17.6117   O.3      80 RES80   0.0000
  8460 O3       3.1348  17.6117  38.3582   O.3      81 RES81   0.0000
  8461 O3       3.1348  38.3582  17.6117   O.3      82 RES82   0.0000
  8462 O3       3.1348  38.3582  38.3582   O.3      83 RES83   0.0000
  8463 O3      23.8813  17.6117  17.6117   O.3      84 RES84   0.0000
  8464 O3      23.8813  17.6117  38.3582   O.3      85 RES85   0.0000
  8465 O3      23.8813  38.3582  17.6117   O.3      86 RES86   0.0000
  8466 O3      23.8813  38.3582  38.3582   O.3      87 RES87   0.0000
  8467 O3      17.6117   3.1348  17.6117   O.3      88 RES88   0.0000
  8468 O3      17.6117   3.1348  38.3582   O.3      89 RES89   0.0000
  8469 O3      17.6117  23.8813  17.6117   O.3      90 RES90   0.0000
  8470 O3      17.6117  23.8813  38.3582   O.3      91 RES91   0.0000
  8471 O3      38.3582   3.1348  17.6117   O.3      92 RES92   0.0000
  8472 O3      38.3582   3.1348  38.3582   O.3      93 RES93   0.0000
  8473 O3      38.3582  23.8813  17.6117   O.3      94 RES94   0.0000
  8474 O3      38.3582  23.8813  38.3582   O.3      95 RES95   0.0000
  8475 O3      17.6117  17.6117  17.6117   O.3      96 RES96   0.0000
  8476 O3      17.6117  17.6117  38.3582   O.3      97 RES97   0.0000
  8477 O3      17.6117  38.3582  17.6117   O.3      98 RES98   0.0000
  8478 O3      17.6117  38.3582  38.3582   O.3      99 RES99   0.0000
  8479 O3      38.3582  17.6117  17.6117   O.3      100 RES100   0.0000
  8480 O3      38.3582  17.6117  38.3582   O.3      101 RES101   0.0000
  8481 O3      38.3582  38.3582  17.6117   O.3      102 RES102   0.0000
  8482 O3      38.3582  38.3582  38.3582   O.3      103 RES103   0.0000
  8483 O3       3.1348   3.1348  17.6117   O.3      104 RES104   0.0000
  8484 O3       3.1348   3.1348  38.3582   O.3      105 RES105   0.0000
  8485 O3       3.1348  23.8813  17.6117   O.3      106 RES106   0.0000
  8486 O3       3.1348  23.8813  38.3582   O.3      107 RES107   0.0000
  8487 O3      23.8813   3.1348  17.6117   O.3      108 RES108   0.0000
  8488 O3      23.8813   3.1348  38.3582   O.3      109 RES109   0.0000
  8489 O3      23.8813  23.8813  17.6117   O.3      110 RES110   0.0000
  8490 O3      23.8813  23.8813  38.3582   O.3      111 RES111   0.0000
  8491 O3      17.6117   3.1348   3.1348   O.3      112 RES112   0.0000
  8492 O3      17.6117   3.1348  23.8813   O.3      113 RES113   0.0000
  8493 O3      17.6117  23.8813   3.1348   O.3      114 RES114   0.0000
  8494 O3      17.6117  23.8813  23.8813   O.3      115 RES115   0.0000
  8495 O3      38.3582   3.1348   3.1348   O.3      116 RES116   0.0000
  8496 O3      38.3582   3.1348  23.8813   O.3      117 RES117   0.0000
  8497 O3      38.3582  23.8813   3.1348   O.3      118 RES118   0.0000
  8498 O3      38.3582  23.8813  23.8813   O.3      119 RES119   0.0000
  8499 O3       3.1348  17.6117   3.1348   O.3      120 RES120   0.0000
  8500 O3       3.1348  17.6117  23.8813   O.3      121 RES121   0.0000
  8501 O3       3.1348  38.3582   3.1348   O.3      122 RES122   0.0000
  8502 O3       3.1348  38.3582  23.8813   O.3      123 RES123   0.0000
  8503 O3      23.8813  17.6117   3.1348   O.3      124 RES124   0.0000
  8504 O3      23.8813  17.6117  23.8813   O.3      125 RES125   0.0000
  8505 O3      23.8813  38.3582   3.1348   O.3      126 RES126   0.0000
  8506 O3      23.8813  38.3582  23.8813   O.3      127 RES127   0.0000
  8507 O3      17.6117   7.2385  13.5080   O.3      128 RES128   0.0000
  8508 O3      17.6117   7.2385  34.2545   O.3      129 RES129   0.0000
  8509 O3      17.6117  27.9850  13.5080   O.3      130 RES130   0.0000
  8510 O3      17.6117  27.9850  34.2545   O.3      131 RES131   0.0000
  8511 O3      38.3582   7.2385  13.5080   O.3      132 RES132   0.0000
  8512 O3      38.3582   7.2385  34.2545   O.3      133 RES133   0.0000
  8513 O3      38.3582  27.9850  13.5080   O.3      134 RES134   0.0000
  8514 O3      38.3582  27.9850  34.2545   O.3      135 RES135   0.0000
  8515 O3       3.1348  13.5080  13.5080   O.3      136 RES136   0.0000
  8516 O3       3.1348  13.5080  34.2545   O.3      137 RES137   0.0000
  8517 O3       3.1348  34.2545  13.5080   O.3      138 RES138   0.0000
  8518 O3       3.1348  34.2545  34.2545   O.3      139 RES139   0.0000
  8519 O3      23.8813  13.5080  13.5080   O.3      140 RES140   0.0000
  8520 O3      23.8813  13.5080  34.2545   O.3      141 RES141   0.0000
  8521 O3      23.8813  34.2545  13.5080   O.3      142 RES142   0.0000
  8522 O3      23.8813  34.2545  34.2545   O.3      143 RES143   0.0000
  8523 O3       3.1348   7.2385   7.2385   O.3      144 RES144   0.0000
  8524 O3       3.1348   7.2385  27.9850   O.3      145 RES145   0.0000
  8525 O3       3.1348  27.9850   7.2385   O.3      146 RES146   0.0000
  8526 O3       3.1348  27.9850  27.9850   O.3      147 RES147   0.0000
  8527 O3      23.8813   7.2385   7.2385   O.3      148 RES148   0.0000
  8528 O3      23.8813   7.2385  27.9850   O.3      149 RES149   0.0000
  8529 O3      23.8813  27.9850   7.2385   O.3      150 RES150   0.0000
  8530 O3      23.8813  27.9850  27.9850   O.3      151 RES151   0.0000
  8531 O3      17.6117  13.5080   7.2385   O.3      152 RES152   0.0000
  8532 O3      17.6117  13.5080  27.9850   O.3      153 RES153   0.0000
  8533 O3      17.6117  34.2545   7.2385   O.3      154 RES154   0.0000
  8534 O3      17.6117  34.2545  27.9850   O.3      155 RES155   0.0000
  8535 O3      38.3582  13.5080   7.2385   O.3      156 RES156   0.0000
  8536 O3      38.3582  13.5080  27.9850   O.3      157 RES157   0.0000
  8537 O3      38.3582  34.2545   7.2385   O.3      158 RES158   0.0000
  8538 O3      38.3582  34.2545  27.9850   O.3      159 RES159   0.0000
  8539 O3      17.6117   7.2385   7.2385   O.3      160 RES160   0.0000
  8540 O3      17.6117   7.2385  27.9850   O.3      161 RES161   0.0000
  8541 O3      17.6117  27.9850   7.2385   O.3      162 RES162   0.0000
  8542 O3      17.6117  27.9850  27.9850   O.3      163 RES163   0.0000
  8543 O3      38.3582   7.2385   7.2385   O.3      164 RES164   0.0000
  8544 O3      38.3582   7.2385  27.9850   O.3      165 RES165   0.0000
  8545 O3      38.3582  27.9850   7.2385   O.3      166 RES166   0.0000
  8546 O3      38.3582  27.9850  27.9850   O.3      167 RES167   0.0000
  8547 O3       3.1348  13.5080   7.2385   O.3      168 RES168   0.0000
  8548 O3       3.1348  13.5080  27.9850   O.3      169 RES169   0.0000
  8549 O3       3.1348  34.2545   7.2385   O.3      170 RES170   0.0000
  8550 O3       3.1348  34.2545  27.9850   O.3      171 RES171   0.0000
  8551 O3      23.8813  13.5080   7.2385   O.3      172 RES172   0.0000
  8552 O3      23.8813  13.5080  27.9850   O.3      173 RES173   0.0000
  8553 O3      23.8813  34.2545   7.2385   O.3      174 RES174   0.0000
  8554 O3      23.8813  34.2545  27.9850   O.3      175 RES175   0.0000
  8555 O3      17.6117  13.5080  13.5080   O.3      176 RES176   0.0000
  8556 O3      17.6117  13.5080  34.2545   O.3      177 RES177   0.0000
  8557 O3      17.6117  34.2545  13.5080   O.3      178 RES178   0.0000
  8558 O3      17.6117  34.2545  34.2545   O.3      179 RES179   0.0000
  8559 O3      38.3582  13.5080  13.5080   O.3      180 RES180   0.0000
  8560 O3      38.3582  13.5080  34.2545   O.3      181 RES181   0.0000
  8561 O3      38.3582  34.2545  13.5080   O.3      182 RES182   0.0000
  8562 O3      38.3582  34.2545  34.2545   O.3      183 RES183   0.0000
  8563 O3       3.1348   7.2385  13.5080   O.3      184 RES184   0.0000
  8564 O3       3.1348   7.2385  34.2545   O.3      185 RES185   0.0000
  8565 O3       3.1348  27.9850  13.5080   O.3      186 RES186   0.0000
  8566 O3       3.1348  27.9850  34.2545   O.3      187 RES187   0.0000
  8567 O3      23.8813   7.2385  13.5080   O.3      188 RES188   0.0000
  8568 O3      23.8813   7.2385  34.2545   O.3      189 RES189   0.0000
  8569 O3      23.8813  27.9850  13.5080   O.3      190 RES190   0.0000
  8570 O3      23.8813  27.9850  34.2545   O.3      191 RES191   0.0000
  8571 O3       7.2385  17.6117  13.5080   O.3      192 RES192   0.0000
  8572 O3       7.2385  17.6117  34.2545   O.3      193 RES193   0.0000
  8573 O3       7.2385  38.3582  13.5080   O.3      194 RES194   0.0000
  8574 O3       7.2385  38.3582  34.2545   O.3      195 RES195   0.0000
  8575 O3      27.9850  17.6117  13.5080   O.3      196 RES196   0.0000
  8576 O3      27.9850  17.6117  34.2545   O.3      197 RES197   0.0000
  8577 O3      27.9850  38.3582  13.5080   O.3      198 RES198   0.0000
  8578 O3      27.9850  38.3582  34.2545   O.3      199 RES199   0.0000
  8579 O3      13.5080   3.1348  13.5080   O.3      200 RES200   0.0000
  8580 O3      13.5080   3.1348  34.2545   O.3      201 RES201   0.0000
  8581 O3      13.5080  23.8813  13.5080   O.3      202 RES202   0.0000
  8582 O3      13.5080  23.8813  34.2545   O.3      203 RES203   0.0000
  8583 O3      34.2545   3.1348  13.5080   O.3      204 RES204   0.0000
  8584 O3      34.2545   3.1348  34.2545   O.3      205 RES205   0.0000
  8585 O3      34.2545  23.8813  13.5080   O.3      206 RES206   0.0000
  8586 O3      34.2545  23.8813  34.2545   O.3      207 RES207   0.0000
  8587 O3      13.5080  17.6117   7.2385   O.3      208 RES208   0.0000
  8588 O3      13.5080  17.6117  27.9850   O.3      209 RES209   0.0000
  8589 O3      13.5080  38.3582   7.2385   O.3      210 RES210   0.0000
  8590 O3      13.5080  38.3582  27.9850   O.3      211 RES211   0.0000
  8591 O3      34.2545  17.6117   7.2385   O.3      212 RES212   0.0000
  8592 O3      34.2545  17.6117  27.9850   O.3      213 RES213   0.0000
  8593 O3      34.2545  38.3582   7.2385   O.3      214 RES214   0.0000
  8594 O3      34.2545  38.3582  27.9850   O.3      215 RES215   0.0000
  8595 O3       7.2385   3.1348   7.2385   O.3      216 RES216   0.0000
  8596 O3       7.2385   3.1348  27.9850   O.3      217 RES217   0.0000
  8597 O3       7.2385  23.8813   7.2385   O.3      218 RES218   0.0000
  8598 O3       7.2385  23.8813  27.9850   O.3      219 RES219   0.0000
  8599 O3      27.9850   3.1348   7.2385   O.3      220 RES220   0.0000
  8600 O3      27.9850   3.1348  27.9850   O.3      221 RES221   0.0000
  8601 O3      27.9850  23.8813   7.2385   O.3      222 RES222   0.0000
  8602 O3      27.9850  23.8813  27.9850   O.3      223 RES223   0.0000
  8603 O3       7.2385  17.6117   7.2385   O.3      224 RES224   0.0000
  8604 O3       7.2385  17.6117  27.9850   O.3      225 RES225   0.0000
  8605 O3       7.2385  38.3582   7.2385   O.3      226 RES226   0.0000
  8606 O3       7.2385  38.3582  27.9850   O.3      227 RES227   0.0000
  8607 O3      27.9850  17.6117   7.2385   O.3      228 RES228   0.0000
  8608 O3      27.9850  17.6117  27.9850   O.3      229 RES229   0.0000
  8609 O3      27.9850  38.3582   7.2385   O.3      230 RES230   0.0000
  8610 O3      27.9850  38.3582  27.9850   O.3      231 RES231   0.0000
  8611 O3      13.5080   3.1348   7.2385   O.3      232 RES232   0.0000
  8612 O3      13.5080   3.1348  27.9850   O.3      233 RES233   0.0000
  8613 O3      13.5080  23.8813   7.2385   O.3      234 RES234   0.0000
  8614 O3      13.5080  23.8813  27.9850   O.3      235 RES235   0.0000
  8615 O3      34.2545   3.1348   7.2385   O.3      236 RES236   0.0000
  8616 O3      34.2545   3.1348  27.9850   O.3      237 RES237   0.0000
  8617 O3      34.2545  23.8813   7.2385   O.3      238 RES238   0.0000
  8618 O3      34.2545  23.8813  27.9850   O.3      239 RES239   0.0000
  8619 O3       7.2385   3.1348  13.5080   O.3      240 RES240   0.0000
  8620 O3       7.2385   3.1348  34.2545   O.3      241 RES241   0.0000
  8621 O3       7.2385  23.8813  13.5080   O.3      242 RES242   0.0000
  8622 O3       7.2385  23.8813  34.2545   O.3      243 RES243   0.0000
  8623 O3      27.9850   3.1348  13.5080   O.3      244 RES244   0.0000
  8624 O3      27.9850   3.1348  34.2545   O.3      245 RES245   0.0000
  8625 O3      27.9850  23.8813  13.5080   O.3      246 RES246   0.0000
  8626 O3      27.9850  23.8813  34.2545   O.3      247 RES247   0.0000
  8627 O3      13.5080  17.6117  13.5080   O.3      248 RES248   0.0000
  8628 O3      13.5080  17.6117  34.2545   O.3      249 RES249   0.0000
  8629 O3      13.5080  38.3582  13.5080   O.3      250 RES250   0.0000
  8630 O3      13.5080  38.3582  34.2545   O.3      251 RES251   0.0000
  8631 O3      34.2545  17.6117  13.5080   O.3      252 RES252   0.0000
  8632 O3      34.2545  17.6117  34.2545   O.3      253 RES253   0.0000
  8633 O3      34.2545  38.3582  13.5080   O.3      254 RES254   0.0000
  8634 O3      34.2545  38.3582  34.2545   O.3      255 RES255   0.0000
  8635 O3       7.2385   7.2385   3.1348   O.3      256 RES256   0.0000
  8636 O3       7.2385   7.2385  23.8813   O.3      257 RES257   0.0000
  8637 O3       7.2385  27.9850   3.1348   O.3      258 RES258   0.0000
  8638 O3       7.2385  27.9850  23.8813   O.3      259 RES259   0.0000
  8639 O3      27.9850   7.2385   3.1348   O.3      260 RES260   0.0000
  8640 O3      27.9850   7.2385  23.8813   O.3      261 RES261   0.0000
  8641 O3      27.9850  27.9850   3.1348   O.3      262 RES262   0.0000
  8642 O3      27.9850  27.9850  23.8813   O.3      263 RES263   0.0000
  8643 O3      13.5080  13.5080   3.1348   O.3      264 RES264   0.0000
  8644 O3      13.5080  13.5080  23.8813   O.3      265 RES265   0.0000
  8645 O3      13.5080  34.2545   3.1348   O.3      266 RES266   0.0000
  8646 O3      13.5080  34.2545  23.8813   O.3      267 RES267   0.0000
  8647 O3      34.2545  13.5080   3.1348   O.3      268 RES268   0.0000
  8648 O3      34.2545  13.5080  23.8813   O.3      269 RES269   0.0000
  8649 O3      34.2545  34.2545   3.1348   O.3      270 RES270   0.0000
  8650 O3      34.2545  34.2545  23.8813   O.3      271 RES271   0.0000
  8651 O3      13.5080   7.2385  17.6117   O.3      272 RES272   0.0000
  8652 O3      13.5080   7.2385  38.3582   O.3      273 RES273   0.0000
  8653 O3      13.5080  27.9850  17.6117   O.3      274 RES274   0.0000
  8654 O3      13.5080  27.9850  38.3582   O.3      275 RES275   0.0000
  8655 O3      34.2545   7.2385  17.6117   O.3      276 RES276   0.0000
  8656 O3      34.2545   7.2385  38.3582   O.3      277 RES277   0.0000
  8657 O3      34.2545  27.9850  17.6117   O.3      278 RES278   0.0000
  8658 O3      34.2545  27.9850  38.3582   O.3      279 RES279   0.0000
  8659 O3       7.2385  13.5080  17.6117   O.3      280 RES280   0.0000
  8660 O3       7.2385  13.5080  38.3582   O.3      281 RES281   0.0000
  8661 O3       7.2385  34.2545  17.6117   O.3      282 RES282   0.0000
  8662 O3       7.2385  34.2545  38.3582   O.3      283 RES283   0.0000
  8663 O3      27.9850  13.5080  17.6117   O.3      284 RES284   0.0000
  8664 O3      27.9850  13.5080  38.3582   O.3      285 RES285   0.0000
  8665 O3      27.9850  34.2545  17.6117   O.3      286 RES286   0.0000
  8666 O3      27.9850  34.2545  38.3582   O.3      287 RES287   0.0000
  8667 O3       7.2385   7.2385  17.6117   O.3      288 RES288   0.0000
  8668 O3       7.2385   7.2385  38.3582   O.3      289 RES289   0.0000
  8669 O3       7.2385  27.9850  17.6117   O.3      290 RES290   0.0000
  8670 O3       7.2385  27.9850  38.3582   O.3      291 RES291   0.0000
  8671 O3      27.9850   7.2385  17.6117   O.3      292 RES292   0.0000
  8672 O3      27.9850   7.2385  38.3582   O.3      293 RES293   0.0000
  8673 O3      27.9850  27.9850  17.6117   O.3      294 RES294   0.0000
  8674 O3      27.9850  27.9850  38.3582   O.3      295 RES295   0.0000
  8675 O3      13.5080  13.5080  17.6117   O.3      296 RES296   0.0000
  8676 O3      13.5080  13.5080  38.3582   O.3      297 RES297   0.0000
  8677 O3      13.5080  34.2545  17.6117   O.3      298 RES298   0.0000
  8678 O3      13.5080  34.2545  38.3582   O.3      299 RES299   0.0000
  8679 O3      34.2545  13.5080  17.6117   O.3      300 RES300   0.0000
  8680 O3      34.2545  13.5080  38.3582   O.3      301 RES301   0.0000
  8681 O3      34.2545  34.2545  17.6117   O.3      302 RES302   0.0000
  8682 O3      34.2545  34.2545  38.3582   O.3      303 RES303   0.0000
  8683 O3       7.2385  13.5080   3.1348   O.3      304 RES304   0.0000
  8684 O3       7.2385  13.5080  23.8813   O.3      305 RES305   0.0000
  8685 O3       7.2385  34.2545   3.1348   O.3      306 RES306   0.0000
  8686 O3       7.2385  34.2545  23.8813   O.3      307 RES307   0.0000
  8687 O3      27.9850  13.5080   3.1348   O.3      308 RES308   0.0000
  8688 O3      27.9850  13.5080  23.8813   O.3      309 RES309   0.0000
  8689 O3      27.9850  34.2545   3.1348   O.3      310 RES310   0.0000
  8690 O3      27.9850  34.2545  23.8813   O.3      311 RES311   0.0000
  8691 O3      13.5080   7.2385   3.1348   O.3      312 RES312   0.0000
  8692 O3      13.5080   7.2385  23.8813   O.3      313 RES313   0.0000
  8693 O3      13.5080  27.9850   3.1348   O.3      314 RES314   0.0000
  8694 O3      13.5080  27.9850  23.8813   O.3      315 RES315   0.0000
  8695 O3      34.2545   7.2385   3.1348   O.3      316 RES316   0.0000
  8696 O3      34.2545   7.2385  23.8813   O.3      317 RES317   0.0000
  8697 O3      34.2545  27.9850   3.1348   O.3      318 RES318   0.0000
  8698 O3      34.2545  27.9850  23.8813   O.3      319 RES319   0.0000
  8699 O4      16.3731  16.3731   4.3734   O.3      320 RES320   0.0000
  8700 O4      16.3731  16.3731  25.1199   O.3      321 RES321   0.0000
  8701 O4      16.3731  37.1196   4.3734   O.3      322 RES322   0.0000
  8702 O4      16.3731  37.1196  25.1199   O.3      323 RES323   0.0000
  8703 O4      37.1196  16.3731   4.3734   O.3      324 RES324   0.0000
  8704 O4      37.1196  16.3731  25.1199   O.3      325 RES325   0.0000
  8705 O4      37.1196  37.1196   4.3734   O.3      326 RES326   0.0000
  8706 O4      37.1196  37.1196  25.1199   O.3      327 RES327   0.0000
  8707 O4       4.3734   4.3734   4.3734   O.3      328 RES328   0.0000
  8708 O4       4.3734   4.3734  25.1199   O.3      329 RES329   0.0000
  8709 O4       4.3734  25.1199   4.3734   O.3      330 RES330   0.0000
  8710 O4       4.3734  25.1199  25.1199   O.3      331 RES331   0.0000
  8711 O4      25.1199   4.3734   4.3734   O.3      332 RES332   0.0000
  8712 O4      25.1199   4.3734  25.1199   O.3      333 RES333   0.0000
  8713 O4      25.1199  25.1199   4.3734   O.3      334 RES334   0.0000
  8714 O4      25.1199  25.1199  25.1199   O.3      335 RES335   0.0000
  8715 O4       4.3734  16.3731  16.3731   O.3      336 RES336   0.0000
  8716 O4       4.3734  16.3731  37.1196   O.3      337 RES337   0.0000
  8717 O4       4.3734  37.1196  16.3731   O.3      338 RES338   0.0000
  8718 O4       4.3734  37.1196  37.1196   O.3      339 RES339   0.0000
  8719 O4      25.1199  16.3731  16.3731   O.3      340 RES340   0.0000
  8720 O4      25.1199  16.3731  37.1196   O.3      341 RES341   0.0000
  8721 O4      25.1199  37.1196  16.3731   O.3      342 RES342   0.0000
  8722 O4      25.1199  37.1196  37.1196   O.3      343 RES343   0.0000
  8723 O4      16.3731   4.3734  16.3731   O.3      344 RES344   0.0000
  8724 O4      16.3731   4.3734  37.1196   O.3      345 RES345   0.0000
  8725 O4      16.3731  25.1199  16.3731   O.3      346 RES346   0.0000
  8726 O4      16.3731  25.1199  37.1196   O.3      347 RES347   0.0000
  8727 O4      37.1196   4.3734  16.3731   O.3      348 RES348   0.0000
  8728 O4      37.1196   4.3734  37.1196   O.3      349 RES349   0.0000
  8729 O4      37.1196  25.1199  16.3731   O.3      350 RES350   0.0000
  8730 O4      37.1196  25.1199  37.1196   O.3      351 RES351   0.0000
  8731 O4      16.3731  16.3731  16.3731   O.3      352 RES352   0.0000
  8732 O4      16.3731  16.3731  37.1196   O.3      353 RES353   0.0000
  8733 O4      16.3731  37.1196  16.3731   O.3      354 RES354   0.0000
  8734 O4      16.3731  37.1196  37.1196   O.3      355 RES355   0.0000
  8735 O4      37.1196  16.3731  16.3731   O.3      356 RES356   0.0000
  8736 O4      37.1196  16.3731  37.1196   O.3      357 RES357   0.0000
  8737 O4      37.1196  37.1196  16.3731   O.3      358 RES358   0.0000
  8738 O4      37.1196  37.1196  37.1196   O.3      359 RES359   0.0000
  8739 O4       4.3734   4.3734  16.3731   O.3      360 RES360   0.0000
  8740 O4       4.3734   4.3734  37.1196   O.3      361 RES361   0.0000
  8741 O4       4.3734  25.1199  16.3731   O.3      362 RES362   0.0000
  8742 O4       4.3734  25.1199  37.1196   O.3      363 RES363   0.0000
  8743 O4      25.1199   4.3734  16.3731   O.3      364 RES364   0.0000
  8744 O4      25.1199   4.3734  37.1196   O.3      365 RES365   0.0000
  8745 O4      25.1199  25.1199  16.3731   O.3      366 RES366   0.0000
  8746 O4      25.1199  25.1199  37.1196   O.3      367 RES367   0.0000
  8747 O4      16.3731   4.3734   4.3734   O.3      368 RES368   0.0000
  8748 O4      16.3731   4.3734  25.1199   O.3      369 RES369   0.0000
  8749 O4      16.3731  25.1199   4.3734   O.3      370 RES370   0.0000
  8750 O4      16.3731  25.1199  25.1199   O.3      371 RES371   0.0000
  8751 O4      37.1196   4.3734   4.3734   O.3      372 RES372   0.0000
  8752 O4      37.1196   4.3734  25.1199   O.3      373 RES373   0.0000
  8753 O4      37.1196  25.1199   4.3734   O.3      374 RES374   0.0000
  8754 O4      37.1196  25.1199  25.1199   O.3      375 RES375   0.0000
  8755 O4       4.3734  16.3731   4.3734   O.3      376 RES376   0.0000
  8756 O4       4.3734  16.3731  25.1199   O.3      377 RES377   0.0000
  8757 O4       4.3734  37.1196   4.3734   O.3      378 RES378   0.0000
  8758 O4       4.3734  37.1196  25.1199   O.3      379 RES379   0.0000
  8759 O4      25.1199  16.3731   4.3734   O.3      380 RES380   0.0000
  8760 O4      25.1199  16.3731  25.1199   O.3      381 RES381   0.0000
  8761 O4      25.1199  37.1196   4.3734   O.3      382 RES382   0.0000
  8762 O4      25.1199  37.1196  25.1199   O.3      383 RES383   0.0000
  8763 O4      16.3731   5.9999  14.7466   O.3      384 RES384   0.0000
  8764 O4      16.3731   5.9999  35.4931   O.3      385 RES385   0.0000
  8765 O4      16.3731  26.7464  14.7466   O.3      386 RES386   0.0000
  8766 O4      16.3731  26.7464  35.4931   O.3      387 RES387   0.0000
  8767 O4      37.1196   5.9999  14.7466   O.3      388 RES388   0.0000
  8768 O4      37.1196   5.9999  35.4931   O.3      389 RES389   0.0000
  8769 O4      37.1196  26.7464  14.7466   O.3      390 RES390   0.0000
  8770 O4      37.1196  26.7464  35.4931   O.3      391 RES391   0.0000
  8771 O4       4.3734  14.7466  14.7466   O.3      392 RES392   0.0000
  8772 O4       4.3734  14.7466  35.4931   O.3      393 RES393   0.0000
  8773 O4       4.3734  35.4931  14.7466   O.3      394 RES394   0.0000
  8774 O4       4.3734  35.4931  35.4931   O.3      395 RES395   0.0000
  8775 O4      25.1199  14.7466  14.7466   O.3      396 RES396   0.0000
  8776 O4      25.1199  14.7466  35.4931   O.3      397 RES397   0.0000
  8777 O4      25.1199  35.4931  14.7466   O.3      398 RES398   0.0000
  8778 O4      25.1199  35.4931  35.4931   O.3      399 RES399   0.0000
  8779 O4       4.3734   5.9999   5.9999   O.3      400 RES400   0.0000
  8780 O4       4.3734   5.9999  26.7464   O.3      401 RES401   0.0000
  8781 O4       4.3734  26.7464   5.9999   O.3      402 RES402   0.0000
  8782 O4       4.3734  26.7464  26.7464   O.3      403 RES403   0.0000
  8783 O4      25.1199   5.9999   5.9999   O.3      404 RES404   0.0000
  8784 O4      25.1199   5.9999  26.7464   O.3      405 RES405   0.0000
  8785 O4      25.1199  26.7464   5.9999   O.3      406 RES406   0.0000
  8786 O4      25.1199  26.7464  26.7464   O.3      407 RES407   0.0000
  8787 O4      16.3731  14.7466   5.9999   O.3      408 RES408   0.0000
  8788 O4      16.3731  14.7466  26.7464   O.3      409 RES409   0.0000
  8789 O4      16.3731  35.4931   5.9999   O.3      410 RES410   0.0000
  8790 O4      16.3731  35.4931  26.7464   O.3      411 RES411   0.0000
  8791 O4      37.1196  14.7466   5.9999   O.3      412 RES412   0.0000
  8792 O4      37.1196  14.7466  26.7464   O.3      413 RES413   0.0000
  8793 O4      37.1196  35.4931   5.9999   O.3      414 RES414   0.0000
  8794 O4      37.1196  35.4931  26.7464   O.3      415 RES415   0.0000
  8795 O4      16.3731   5.9999   5.9999   O.3      416 RES416   0.0000
  8796 O4      16.3731   5.9999  26.7464   O.3      417 RES417   0.0000
  8797 O4      16.3731  26.7464   5.9999   O.3      418 RES418   0.0000
  8798 O4      16.3731  26.7464  26.7464   O.3      419 RES419   0.0000
  8799 O4      37.1196   5.9999   5.9999   O.3      420 RES420   0.0000
  8800 O4      37.1196   5.9999  26.7464   O.3      421 RES421   0.0000
  8801 O4      37.1196  26.7464   5.9999   O.3      422 RES422   0.0000
  8802 O4      37.1196  26.7464  26.7464   O.3      423 RES423   0.0000
  8803 O4       4.3734  14.7466   5.9999   O.3      424 RES424   0.0000
  8804 O4       4.3734  14.7466  26.7464   O.3      425 RES425   0.0000
  8805 O4       4.3734  35.4931   5.9999   O.3      426 RES426   0.0000
  8806 O4       4.3734  35.4931  26.7464   O.3      427 RES427   0.0000
  8807 O4      25.1199  14.7466   5.9999   O.3      428 RES428   0.0000
  8808 O4      25.1199  14.7466  26.7464   O.3      429 RES429   0.0000
  8809 O4      25.1199  35.4931   5.9999   O.3      430 RES430   0.0000
  8810 O4      25.1199  35.4931  26.7464   O.3      431 RES431   0.0000
  8811 O4      16.3731  14.7466  14.7466   O.3      432 RES432   0.0000
  8812 O4      16.3731  14.7466  35.4931   O.3      433 RES433   0.0000
  8813 O4      16.3731  35.4931  14.7466   O.3      434 RES434   0.0000
  8814 O4      16.3731  35.4931  35.4931   O.3      435 RES435   0.0000
  8815 O4      37.1196  14.7466  14.7466   O.3      436 RES436   0.0000
  8816 O4      37.1196  14.7466  35.4931   O.3      437 RES437   0.0000
  8817 O4      37.1196  35.4931  14.7466   O.3      438 RES438   0.0000
  8818 O4      37.1196  35.4931  35.4931   O.3      439 RES439   0.0000
  8819 O4       4.3734   5.9999  14.7466   O.3      440 RES440   0.0000
  8820 O4       4.3734   5.9999  35.4931   O.3      441 RES441   0.0000
  8821 O4       4.3734  26.7464  14.7466   O.3      442 RES442   0.0000
  8822 O4       4.3734  26.7464  35.4931   O.3      443 RES443   0.0000
  8823 O4      25.1199   5.9999  14.7466   O.3      444 RES444   0.0000
  8824 O4      25.1199   5.9999  35.4931   O.3      445 RES445   0.0000
  8825 O4      25.1199  26.7464  14.7466   O.3      446 RES446   0.0000
  8826 O4      25.1199  26.7464  35.4931   O.3      447 RES447   0.0000
  8827 O4       5.9999  16.3731  14.7466   O.3      448 RES448   0.0000
  8828 O4       5.9999  16.3731  35.4931   O.3      449 RES449   0.0000
  8829 O4       5.9999  37.1196  14.7466   O.3      450 RES450   0.0000
  8830 O4       5.9999  37.1196  35.4931   O.3      451 RES451   0.0000
  8831 O4      26.7464  16.3731  14.7466   O.3      452 RES452   0.0000
  8832 O4      26.7464  16.3731  35.4931   O.3      453 RES453   0.0000
  8833 O4      26.7464  37.1196  14.7466   O.3      454 RES454   0.0000
  8834 O4      26.7464  37.1196  35.4931   O.3      455 RES455   0.0000
  8835 O4      14.7466   4.3734  14.7466   O.3      456 RES456   0.0000
  8836 O4      14.7466   4.3734  35.4931   O.3      457 RES457   0.0000
  8837 O4      14.7466  25.1199  14.7466   O.3      458 RES458   0.0000
  8838 O4      14.7466  25.1199  35.4931   O.3      459 RES459   0.0000
  8839 O4      35.4931   4.3734  14.7466   O.3      460 RES460   0.0000
  8840 O4      35.4931   4.3734  35.4931   O.3      461 RES461   0.0000
  8841 O4      35.4931  25.1199  14.7466   O.3      462 RES462   0.0000
  8842 O4      35.4931  25.1199  35.4931   O.3      463 RES463   0.0000
  8843 O4      14.7466  16.3731   5.9999   O.3      464 RES464   0.0000
  8844 O4      14.7466  16.3731  26.7464   O.3      465 RES465   0.0000
  8845 O4      14.7466  37.1196   5.9999   O.3      466 RES466   0.0000
  8846 O4      14.7466  37.1196  26.7464   O.3      467 RES467   0.0000
  8847 O4      35.4931  16.3731   5.9999   O.3      468 RES468   0.0000
  8848 O4      35.4931  16.3731  26.7464   O.3      469 RES469   0.0000
  8849 O4      35.4931  37.1196   5.9999   O.3      470 RES470   0.0000
  8850 O4      35.4931  37.1196  26.7464   O.3      471 RES471   0.0000
  8851 O4       5.9999   4.3734   5.9999   O.3      472 RES472   0.0000
  8852 O4       5.9999   4.3734  26.7464   O.3      473 RES473   0.0000
  8853 O4       5.9999  25.1199   5.9999   O.3      474 RES474   0.0000
  8854 O4       5.9999  25.1199  26.7464   O.3      475 RES475   0.0000
  8855 O4      26.7464   4.3734   5.9999   O.3      476 RES476   0.0000
  8856 O4      26.7464   4.3734  26.7464   O.3      477 RES477   0.0000
  8857 O4      26.7464  25.1199   5.9999   O.3      478 RES478   0.0000
  8858 O4      26.7464  25.1199  26.7464   O.3      479 RES479   0.0000
  8859 O4       5.9999  16.3731   5.9999   O.3      480 RES480   0.0000
  8860 O4       5.9999  16.3731  26.7464   O.3      481 RES481   0.0000
  8861 O4       5.9999  37.1196   5.9999   O.3      482 RES482   0.0000
  8862 O4       5.9999  37.1196  26.7464   O.3      483 RES483   0.0000
  8863 O4      26.7464  16.3731   5.9999   O.3      484 RES484   0.0000
  8864 O4      26.7464  16.3731  26.7464   O.3      485 RES485   0.0000
  8865 O4      26.7464  37.1196   5.9999   O.3      486 RES486   0.0000
  8866 O4      26.7464  37.1196  26.7464   O.3      487 RES487   0.0000
  8867 O4      14.7466   4.3734   5.9999   O.3      488 RES488   0.0000
  8868 O4      14.7466   4.3734  26.7464   O.3      489 RES489   0.0000
  8869 O4      14.7466  25.1199   5.9999   O.3      490 RES490   0.0000
  8870 O4      14.7466  25.1199  26.7464   O.3      491 RES491   0.0000
  8871 O4      35.4931   4.3734   5.9999   O.3      492 RES492   0.0000
  8872 O4      35.4931   4.3734  26.7464   O.3      493 RES493   0.0000
  8873 O4      35.4931  25.1199   5.9999   O.3      494 RES494   0.0000
  8874 O4      35.4931  25.1199  26.7464   O.3      495 RES495   0.0000
  8875 O4       5.9999   4.3734  14.7466   O.3      496 RES496   0.0000
  8876 O4       5.9999   4.3734  35.4931   O.3      497 RES497   0.0000
  8877 O4       5.9999  25.1199  14.7466   O.3      498 RES498   0.0000
  8878 O4       5.9999  25.1199  35.4931   O.3      499 RES499   0.0000
  8879 O4      26.7464   4.3734  14.7466   O.3      500 RES500   0.0000
  8880 O4      26.7464   4.3734  35.4931   O.3      501 RES501   0.0000
  8881 O4      26.7464  25.1199  14.7466   O.3      502 RES502   0.0000
  8882 O4      26.7464  25.1199  35.4931   O.3      503 RES503   0.0000
  8883 O4      14.7466  16.3731  14.7466   O.3      504 RES504   0.0000
  8884 O4      14.7466  16.3731  35.4931   O.3      505 RES505   0.0000
  8885 O4      14.7466  37.1196  14.7466   O.3      506 RES506   0.0000
  8886 O4      14.7466  37.1196  35.4931   O.3      507 RES507   0.0000
  8887 O4      35.4931  16.3731  14.7466   O.3      508 RES508   0.0000
  8888 O4      35.4931  16.3731  35.4931   O.3      509 RES509   0.0000
  8889 O4      35.4931  37.1196  14.7466   O.3      510 RES510   0.0000
  8890 O4      35.4931  37.1196  35.4931   O.3      511 RES511   0.0000
  8891 O4       5.9999   5.9999   4.3734   O.3      512 RES512   0.0000
  8892 O4       5.9999   5.9999  25.1199   O.3      513 RES513   0.0000
  8893 O4       5.9999  26.7464   4.3734   O.3      514 RES514   0.0000
  8894 O4       5.9999  26.7464  25.1199   O.3      515 RES515   0.0000
  8895 O4      26.7464   5.9999   4.3734   O.3      516 RES516   0.0000
  8896 O4      26.7464   5.9999  25.1199   O.3      517 RES517   0.0000
  8897 O4      26.7464  26.7464   4.3734   O.3      518 RES518   0.0000
  8898 O4      26.7464  26.7464  25.1199   O.3      519 RES519   0.0000
  8899 O4      14.7466  14.7466   4.3734   O.3      520 RES520   0.0000
  8900 O4      14.7466  14.7466  25.1199   O.3      521 RES521   0.0000
  8901 O4      14.7466  35.4931   4.3734   O.3      522 RES522   0.0000
  8902 O4      14.7466  35.4931  25.1199   O.3      523 RES523   0.0000
  8903 O4      35.4931  14.7466   4.3734   O.3      524 RES524   0.0000
  8904 O4      35.4931  14.7466  25.1199   O.3      525 RES525   0.0000
  8905 O4      35.4931  35.4931   4.3734   O.3      526 RES526   0.0000
  8906 O4      35.4931  35.4931  25.1199   O.3      527 RES527   0.0000
  8907 O4      14.7466   5.9999  16.3731   O.3      528 RES528   0.0000
  8908 O4      14.7466   5.9999  37.1196   O.3      529 RES529   0.0000
  8909 O4      14.7466  26.7464  16.3731   O.3      530 RES530   0.0000
  8910 O4      14.7466  26.7464  37.1196   O.3      531 RES531   0.0000
  8911 O4      35.4931   5.9999  16.3731   O.3      532 RES532   0.0000
  8912 O4      35.4931   5.9999  37.1196   O.3      533 RES533   0.0000
  8913 O4      35.4931  26.7464  16.3731   O.3      534 RES534   0.0000
  8914 O4      35.4931  26.7464  37.1196   O.3      535 RES535   0.0000
  8915 O4       5.9999  14.7466  16.3731   O.3      536 RES536   0.0000
  8916 O4       5.9999  14.7466  37.1196   O.3      537 RES537   0.0000
  8917 O4       5.9999  35.4931  16.3731   O.3      538 RES538   0.0000
  8918 O4       5.9999  35.4931  37.1196   O.3      539 RES539   0.0000
  8919 O4      26.7464  14.7466  16.3731   O.3      540 RES540   0.0000
  8920 O4      26.7464  14.7466  37.1196   O.3      541 RES541   0.0000
  8921 O4      26.7464  35.4931  16.3731   O.3      542 RES542   0.0000
  8922 O4      26.7464  35.4931  37.1196   O.3      543 RES543   0.0000
  8923 O4       5.9999   5.9999  16.3731   O.3      544 RES544   0.0000
  8924 O4       5.9999   5.9999  37.1196   O.3      545 RES545   0.0000
  8925 O4       5.9999  26.7464  16.3731   O.3      546 RES546   0.0000
  8926 O4       5.9999  26.7464  37.1196   O.3      547 RES547   0.0000
  8927 O4      26.7464   5.9999  16.3731   O.3      548 RES548   0.0000
  8928 O4      26.7464   5.9999  37.1196   O.3      549 RES549   0.0000
  8929 O4      26.7464  26.7464  16.3731   O.3      550 RES550   0.0000
  8930 O4      26.7464  26.7464  37.1196   O.3      551 RES551   0.0000
  8931 O4      14.7466  14.7466  16.3731   O.3      552 RES552   0.0000
  8932 O4      14.7466  14.7466  37.1196   O.3      553 RES553   0.0000
  8933 O4      14.7466  35.4931  16.3731   O.3      554 RES554   0.0000
  8934 O4      14.7466  35.4931  37.1196   O.3      555 RES555   0.0000
  8935 O4      35.4931  14.7466  16.3731   O.3      556 RES556   0.0000
  8936 O4      35.4931  14.7466  37.1196   O.3      557 RES557   0.0000
  8937 O4      35.4931  35.4931  16.3731   O.3      558 RES558   0.0000
  8938 O4      35.4931  35.4931  37.1196   O.3      559 RES559   0.0000
  8939 O4       5.9999  14.7466   4.3734   O.3      560 RES560   0.0000
  8940 O4       5.9999  14.7466  25.1199   O.3      561 RES561   0.0000
  8941 O4       5.9999  35.4931   4.3734   O.3      562 RES562   0.0000
  8942 O4       5.9999  35.4931  25.1199   O.3      563 RES563   0.0000
  8943 O4      26.7464  14.7466   4.3734   O.3      564 RES564   0.0000
  8944 O4      26.7464  14.7466  25.1199   O.3      565 RES565   0.0000
  8945 O4      26.7464  35.4931   4.3734   O.3      566 RES566   0.0000
  8946 O4      26.7464  35.4931  25.1199   O.3      567 RES567   0.0000
  8947 O4      14.7466   5.9999   4.3734   O.3      568 RES568   0.0000
  8948 O4      14.7466   5.9999  25.1199   O.3      569 RES569   0.0000
  8949 O4      14.7466  26.7464   4.3734   O.3      570 RES570   0.0000
  8950 O4      14.7466  26.7464  25.1199   O.3      571 RES571   0.0000
  8951 O4      35.4931   5.9999   4.3734   O.3      572 RES572   0.0000
  8952 O4      35.4931   5.9999  25.1199   O.3      573 RES573   0.0000
  8953 O4      35.4931  26.7464   4.3734   O.3      574 RES574   0.0000
  8954 O4      35.4931  26.7464  25.1199   O.3      575 RES575   0.0000
  8955 O6       8.2156   2.1576   2.1576   O.3      576 RES576   0.0000
  8956 O6       8.2156   2.1576  22.9041   O.3      577 RES577   0.0000
  8957 O6       8.2156  22.9041   2.1576   O.3      578 RES578   0.0000
  8958 O6       8.2156  22.9041  22.9041   O.3      579 RES579   0.0000
  8959 O6      28.9621   2.1576   2.1576   O.3      580 RES580   0.0000
  8960 O6      28.9621   2.1576  22.9041   O.3      581 RES581   0.0000
  8961 O6      28.9621  22.9041   2.1576   O.3      582 RES582   0.0000
  8962 O6      28.9621  22.9041  22.9041   O.3      583 RES583   0.0000
  8963 O6      12.5309  18.5889   2.1576   O.3      584 RES584   0.0000
  8964 O6      12.5309  18.5889  22.9041   O.3      585 RES585   0.0000
  8965 O6      12.5309  39.3354   2.1576   O.3      586 RES586   0.0000
  8966 O6      12.5309  39.3354  22.9041   O.3      587 RES587   0.0000
  8967 O6      33.2774  18.5889   2.1576   O.3      588 RES588   0.0000
  8968 O6      33.2774  18.5889  22.9041   O.3      589 RES589   0.0000
  8969 O6      33.2774  39.3354   2.1576   O.3      590 RES590   0.0000
  8970 O6      33.2774  39.3354  22.9041   O.3      591 RES591   0.0000
  8971 O6      12.5309   2.1576  18.5889   O.3      592 RES592   0.0000
  8972 O6      12.5309   2.1576  39.3354   O.3      593 RES593   0.0000
  8973 O6      12.5309  22.9041  18.5889   O.3      594 RES594   0.0000
  8974 O6      12.5309  22.9041  39.3354   O.3      595 RES595   0.0000
  8975 O6      33.2774   2.1576  18.5889   O.3      596 RES596   0.0000
  8976 O6      33.2774   2.1576  39.3354   O.3      597 RES597   0.0000
  8977 O6      33.2774  22.9041  18.5889   O.3      598 RES598   0.0000
  8978 O6      33.2774  22.9041  39.3354   O.3      599 RES599   0.0000
  8979 O6       8.2156  18.5889  18.5889   O.3      600 RES600   0.0000
  8980 O6       8.2156  18.5889  39.3354   O.3      601 RES601   0.0000
  8981 O6       8.2156  39.3354  18.5889   O.3      602 RES602   0.0000
  8982 O6       8.2156  39.3354  39.3354   O.3      603 RES603   0.0000
  8983 O6      28.9621  18.5889  18.5889   O.3      604 RES604   0.0000
  8984 O6      28.9621  18.5889  39.3354   O.3      605 RES605   0.0000
  8985 O6      28.9621  39.3354  18.5889   O.3      606 RES606   0.0000
  8986 O6      28.9621  39.3354  39.3354   O.3      607 RES607   0.0000
  8987 O6       2.1576   8.2156   2.1576   O.3      608 RES608   0.0000
  8988 O6       2.1576   8.2156  22.9041   O.3      609 RES609   0.0000
  8989 O6       2.1576  28.9621   2.1576   O.3      610 RES610   0.0000
  8990 O6       2.1576  28.9621  22.9041   O.3      611 RES611   0.0000
  8991 O6      22.9041   8.2156   2.1576   O.3      612 RES612   0.0000
  8992 O6      22.9041   8.2156  22.9041   O.3      613 RES613   0.0000
  8993 O6      22.9041  28.9621   2.1576   O.3      614 RES614   0.0000
  8994 O6      22.9041  28.9621  22.9041   O.3      615 RES615   0.0000
  8995 O6       2.1576  12.5309  18.5889   O.3      616 RES616   0.0000
  8996 O6       2.1576  12.5309  39.3354   O.3      617 RES617   0.0000
  8997 O6       2.1576  33.2774  18.5889   O.3      618 RES618   0.0000
  8998 O6       2.1576  33.2774  39.3354   O.3      619 RES619   0.0000
  8999 O6      22.9041  12.5309  18.5889   O.3      620 RES620   0.0000
  9000 O6      22.9041  12.5309  39.3354   O.3      621 RES621   0.0000
  9001 O6      22.9041  33.2774  18.5889   O.3      622 RES622   0.0000
  9002 O6      22.9041  33.2774  39.3354   O.3      623 RES623   0.0000
  9003 O6      18.5889  12.5309   2.1576   O.3      624 RES624   0.0000
  9004 O6      18.5889  12.5309  22.9041   O.3      625 RES625   0.0000
  9005 O6      18.5889  33.2774   2.1576   O.3      626 RES626   0.0000
  9006 O6      18.5889  33.2774  22.9041   O.3      627 RES627   0.0000
  9007 O6      39.3354  12.5309   2.1576   O.3      628 RES628   0.0000
  9008 O6      39.3354  12.5309  22.9041   O.3      629 RES629   0.0000
  9009 O6      39.3354  33.2774   2.1576   O.3      630 RES630   0.0000
  9010 O6      39.3354  33.2774  22.9041   O.3      631 RES631   0.0000
  9011 O6      18.5889   8.2156  18.5889   O.3      632 RES632   0.0000
  9012 O6      18.5889   8.2156  39.3354   O.3      633 RES633   0.0000
  9013 O6      18.5889  28.9621  18.5889   O.3      634 RES634   0.0000
  9014 O6      18.5889  28.9621  39.3354   O.3      635 RES635   0.0000
  9015 O6      39.3354   8.2156  18.5889   O.3      636 RES636   0.0000
  9016 O6      39.3354   8.2156  39.3354   O.3      637 RES637   0.0000
  9017 O6      39.3354  28.9621  18.5889   O.3      638 RES638   0.0000
  9018 O6      39.3354  28.9621  39.3354   O.3      639 RES639   0.0000
  9019 O6       2.1576   2.1576   8.2156   O.3      640 RES640   0.0000
  9020 O6       2.1576   2.1576  28.9621   O.3      641 RES641   0.0000
  9021 O6       2.1576  22.9041   8.2156   O.3      642 RES642   0.0000
  9022 O6       2.1576  22.9041  28.9621   O.3      643 RES643   0.0000
  9023 O6      22.9041   2.1576   8.2156   O.3      644 RES644   0.0000
  9024 O6      22.9041   2.1576  28.9621   O.3      645 RES645   0.0000
  9025 O6      22.9041  22.9041   8.2156   O.3      646 RES646   0.0000
  9026 O6      22.9041  22.9041  28.9621   O.3      647 RES647   0.0000
  9027 O6      18.5889   2.1576  12.5309   O.3      648 RES648   0.0000
  9028 O6      18.5889   2.1576  33.2774   O.3      649 RES649   0.0000
  9029 O6      18.5889  22.9041  12.5309   O.3      650 RES650   0.0000
  9030 O6      18.5889  22.9041  33.2774   O.3      651 RES651   0.0000
  9031 O6      39.3354   2.1576  12.5309   O.3      652 RES652   0.0000
  9032 O6      39.3354   2.1576  33.2774   O.3      653 RES653   0.0000
  9033 O6      39.3354  22.9041  12.5309   O.3      654 RES654   0.0000
  9034 O6      39.3354  22.9041  33.2774   O.3      655 RES655   0.0000
  9035 O6       2.1576  18.5889  12.5309   O.3      656 RES656   0.0000
  9036 O6       2.1576  18.5889  33.2774   O.3      657 RES657   0.0000
  9037 O6       2.1576  39.3354  12.5309   O.3      658 RES658   0.0000
  9038 O6       2.1576  39.3354  33.2774   O.3      659 RES659   0.0000
  9039 O6      22.9041  18.5889  12.5309   O.3      660 RES660   0.0000
  9040 O6      22.9041  18.5889  33.2774   O.3      661 RES661   0.0000
  9041 O6      22.9041  39.3354  12.5309   O.3      662 RES662   0.0000
  9042 O6      22.9041  39.3354  33.2774   O.3      663 RES663   0.0000
  9043 O6      18.5889  18.5889   8.2156   O.3      664 RES664   0.0000
  9044 O6      18.5889  18.5889  28.9621   O.3      665 RES665   0.0000
  9045 O6      18.5889  39.3354   8.2156   O.3      666 RES666   0.0000
  9046 O6      18.5889  39.3354  28.9621   O.3      667 RES667   0.0000
  9047 O6      39.3354  18.5889   8.2156   O.3      668 RES668   0.0000
  9048 O6      39.3354  18.5889  28.9621   O.3      669 RES669   0.0000
  9049 O6      39.3354  39.3354   8.2156   O.3      670 RES670   0.0000
  9050 O6      39.3354  39.3354  28.9621   O.3      671 RES671   0.0000
  9051 O6       2.1576   8.2156  18.5889   O.3      672 RES672   0.0000
  9052 O6       2.1576   8.2156  39.3354   O.3      673 RES673   0.0000
  9053 O6       2.1576  28.9621  18.5889   O.3      674 RES674   0.0000
  9054 O6       2.1576  28.9621  39.3354   O.3      675 RES675   0.0000
  9055 O6      22.9041   8.2156  18.5889   O.3      676 RES676   0.0000
  9056 O6      22.9041   8.2156  39.3354   O.3      677 RES677   0.0000
  9057 O6      22.9041  28.9621  18.5889   O.3      678 RES678   0.0000
  9058 O6      22.9041  28.9621  39.3354   O.3      679 RES679   0.0000
  9059 O6      18.5889  12.5309  18.5889   O.3      680 RES680   0.0000
  9060 O6      18.5889  12.5309  39.3354   O.3      681 RES681   0.0000
  9061 O6      18.5889  33.2774  18.5889   O.3      682 RES682   0.0000
  9062 O6      18.5889  33.2774  39.3354   O.3      683 RES683   0.0000
  9063 O6      39.3354  12.5309  18.5889   O.3      684 RES684   0.0000
  9064 O6      39.3354  12.5309  39.3354   O.3      685 RES685   0.0000
  9065 O6      39.3354  33.2774  18.5889   O.3      686 RES686   0.0000
  9066 O6      39.3354  33.2774  39.3354   O.3      687 RES687   0.0000
  9067 O6       2.1576  12.5309   2.1576   O.3      688 RES688   0.0000
  9068 O6       2.1576  12.5309  22.9041   O.3      689 RES689   0.0000
  9069 O6       2.1576  33.2774   2.1576   O.3      690 RES690   0.0000
  9070 O6       2.1576  33.2774  22.9041   O.3      691 RES691   0.0000
  9071 O6      22.9041  12.5309   2.1576   O.3      692 RES692   0.0000
  9072 O6      22.9041  12.5309  22.9041   O.3      693 RES693   0.0000
  9073 O6      22.9041  33.2774   2.1576   O.3      694 RES694   0.0000
  9074 O6      22.9041  33.2774  22.9041   O.3      695 RES695   0.0000
  9075 O6      18.5889   8.2156   2.1576   O.3      696 RES696   0.0000
  9076 O6      18.5889   8.2156  22.9041   O.3      697 RES697   0.0000
  9077 O6      18.5889  28.9621   2.1576   O.3      698 RES698   0.0000
  9078 O6      18.5889  28.9621  22.9041   O.3      699 RES699   0.0000
  9079 O6      39.3354   8.2156   2.1576   O.3      700 RES700   0.0000
  9080 O6      39.3354   8.2156  22.9041   O.3      701 RES701   0.0000
  9081 O6      39.3354  28.9621   2.1576   O.3      702 RES702   0.0000
  9082 O6      39.3354  28.9621  22.9041   O.3      703 RES703   0.0000
  9083 O6       8.2156   2.1576  18.5889   O.3      704 RES704   0.0000
  9084 O6       8.2156   2.1576  39.3354   O.3      705 RES705   0.0000
  9085 O6       8.2156  22.9041  18.5889   O.3      706 RES706   0.0000
  9086 O6       8.2156  22.9041  39.3354   O.3      707 RES707   0.0000
  9087 O6      28.9621   2.1576  18.5889   O.3      708 RES708   0.0000
  9088 O6      28.9621   2.1576  39.3354   O.3      709 RES709   0.0000
  9089 O6      28.9621  22.9041  18.5889   O.3      710 RES710   0.0000
  9090 O6      28.9621  22.9041  39.3354   O.3      711 RES711   0.0000
  9091 O6      12.5309   2.1576   2.1576   O.3      712 RES712   0.0000
  9092 O6      12.5309   2.1576  22.9041   O.3      713 RES713   0.0000
  9093 O6      12.5309  22.9041   2.1576   O.3      714 RES714   0.0000
  9094 O6      12.5309  22.9041  22.9041   O.3      715 RES715   0.0000
  9095 O6      33.2774   2.1576   2.1576   O.3      716 RES716   0.0000
  9096 O6      33.2774   2.1576  22.9041   O.3      717 RES717   0.0000
  9097 O6      33.2774  22.9041   2.1576   O.3      718 RES718   0.0000
  9098 O6      33.2774  22.9041  22.9041   O.3      719 RES719   0.0000
  9099 O6      12.5309  18.5889  18.5889   O.3      720 RES720   0.0000
  9100 O6      12.5309  18.5889  39.3354   O.3      721 RES721   0.0000
  9101 O6      12.5309  39.3354  18.5889   O.3      722 RES722   0.0000
  9102 O6      12.5309  39.3354  39.3354   O.3      723 RES723   0.0000
  9103 O6      33.2774  18.5889  18.5889   O.3      724 RES724   0.0000
  9104 O6      33.2774  18.5889  39.3354   O.3      725 RES725   0.0000
  9105 O6      33.2774  39.3354  18.5889   O.3      726 RES726   0.0000
  9106 O6      33.2774  39.3354  39.3354   O.3      727 RES727   0.0000
  9107 O6       8.2156  18.5889   2.1576   O.3      728 RES728   0.0000
  9108 O6       8.2156  18.5889  22.9041   O.3      729 RES729   0.0000
  9109 O6       8.2156  39.3354   2.1576   O.3      730 RES730   0.0000
  9110 O6       8.2156  39.3354  22.9041   O.3      731 RES731   0.0000
  9111 O6      28.9621  18.5889   2.1576   O.3      732 RES732   0.0000
  9112 O6      28.9621  18.5889  22.9041   O.3      733 RES733   0.0000
  9113 O6      28.9621  39.3354   2.1576   O.3      734 RES734   0.0000
  9114 O6      28.9621  39.3354  22.9041   O.3      735 RES735   0.0000
  9115 O6       2.1576   2.1576  12.5309   O.3      736 RES736   0.0000
  9116 O6       2.1576   2.1576  33.2774   O.3      737 RES737   0.0000
  9117 O6       2.1576  22.9041  12.5309   O.3      738 RES738   0.0000
  9118 O6       2.1576  22.9041  33.2774   O.3      739 RES739   0.0000
  9119 O6      22.9041   2.1576  12.5309   O.3      740 RES740   0.0000
  9120 O6      22.9041   2.1576  33.2774   O.3      741 RES741   0.0000
  9121 O6      22.9041  22.9041  12.5309   O.3      742 RES742   0.0000
  9122 O6      22.9041  22.9041  33.2774   O.3      743 RES743   0.0000
  9123 O6       2.1576  18.5889   8.2156   O.3      744 RES744   0.0000
  9124 O6       2.1576  18.5889  28.9621   O.3      745 RES745   0.0000
  9125 O6       2.1576  39.3354   8.2156   O.3      746 RES746   0.0000
  9126 O6       2.1576  39.3354  28.9621   O.3      747 RES747   0.0000
  9127 O6      22.9041  18.5889   8.2156   O.3      748 RES748   0.0000
  9128 O6      22.9041  18.5889  28.9621   O.3      749 RES749   0.0000
  9129 O6      22.9041  39.3354   8.2156   O.3      750 RES750   0.0000
  9130 O6      22.9041  39.3354  28.9621   O.3      751 RES751   0.0000
  9131 O6      18.5889   2.1576   8.2156   O.3      752 RES752   0.0000
  9132 O6      18.5889   2.1576  28.9621   O.3      753 RES753   0.0000
  9133 O6      18.5889  22.9041   8.2156   O.3      754 RES754   0.0000
  9134 O6      18.5889  22.9041  28.9621   O.3      755 RES755   0.0000
  9135 O6      39.3354   2.1576   8.2156   O.3      756 RES756   0.0000
  9136 O6      39.3354   2.1576  28.9621   O.3      757 RES757   0.0000
  9137 O6      39.3354  22.9041   8.2156   O.3      758 RES758   0.0000
  9138 O6      39.3354  22.9041  28.9621   O.3      759 RES759   0.0000
  9139 O6      18.5889  18.5889  12.5309   O.3      760 RES760   0.0000
  9140 O6      18.5889  18.5889  33.2774   O.3      761 RES761   0.0000
  9141 O6      18.5889  39.3354  12.5309   O.3      762 RES762   0.0000
  9142 O6      18.5889  39.3354  33.2774   O.3      763 RES763   0.0000
  9143 O6      39.3354  18.5889  12.5309   O.3      764 RES764   0.0000
  9144 O6      39.3354  18.5889  33.2774   O.3      765 RES765   0.0000
  9145 O6      39.3354  39.3354  12.5309   O.3      766 RES766   0.0000
  9146 O6      39.3354  39.3354  33.2774   O.3      767 RES767   0.0000
  9147 O6       8.2156  12.5309  12.5309   O.3      768 RES768   0.0000
  9148 O6       8.2156  12.5309  33.2774   O.3      769 RES769   0.0000
  9149 O6       8.2156  33.2774  12.5309   O.3      770 RES770   0.0000
  9150 O6       8.2156  33.2774  33.2774   O.3      771 RES771   0.0000
  9151 O6      28.9621  12.5309  12.5309   O.3      772 RES772   0.0000
  9152 O6      28.9621  12.5309  33.2774   O.3      773 RES773   0.0000
  9153 O6      28.9621  33.2774  12.5309   O.3      774 RES774   0.0000
  9154 O6      28.9621  33.2774  33.2774   O.3      775 RES775   0.0000
  9155 O6      12.5309   8.2156  12.5309   O.3      776 RES776   0.0000
  9156 O6      12.5309   8.2156  33.2774   O.3      777 RES777   0.0000
  9157 O6      12.5309  28.9621  12.5309   O.3      778 RES778   0.0000
  9158 O6      12.5309  28.9621  33.2774   O.3      779 RES779   0.0000
  9159 O6      33.2774   8.2156  12.5309   O.3      780 RES780   0.0000
  9160 O6      33.2774   8.2156  33.2774   O.3      781 RES781   0.0000
  9161 O6      33.2774  28.9621  12.5309   O.3      782 RES782   0.0000
  9162 O6      33.2774  28.9621  33.2774   O.3      783 RES783   0.0000
  9163 O6      12.5309  12.5309   8.2156   O.3      784 RES784   0.0000
  9164 O6      12.5309  12.5309  28.9621   O.3      785 RES785   0.0000
  9165 O6      12.5309  33.2774   8.2156   O.3      786 RES786   0.0000
  9166 O6      12.5309  33.2774  28.9621   O.3      787 RES787   0.0000
  9167 O6      33.2774  12.5309   8.2156   O.3      788 RES788   0.0000
  9168 O6      33.2774  12.5309  28.9621   O.3      789 RES789   0.0000
  9169 O6      33.2774  33.2774   8.2156   O.3      790 RES790   0.0000
  9170 O6      33.2774  33.2774  28.9621   O.3      791 RES791   0.0000
  9171 O6       8.2156   8.2156   8.2156   O.3      792 RES792   0.0000
  9172 O6       8.2156   8.2156  28.9621   O.3      793 RES793   0.0000
  9173 O6       8.2156  28.9621   8.2156   O.3      794 RES794   0.0000
  9174 O6       8.2156  28.9621  28.9621   O.3      795 RES795   0.0000
  9175 O6      28.9621   8.2156   8.2156   O.3      796 RES796   0.0000
  9176 O6      28.9621   8.2156  28.9621   O.3      797 RES797   0.0000
  9177 O6      28.9621  28.9621   8.2156   O.3      798 RES798   0.0000
  9178 O6      28.9621  28.9621  28.9621   O.3      799 RES799   0.0000
  9179 O6       8.2156  12.5309   8.2156   O.3      800 RES800   0.0000
  9180 O6       8.2156  12.5309  28.9621   O.3      801 RES801   0.0000
  9181 O6       8.2156  33.2774   8.2156   O.3      802 RES802   0.0000
  9182 O6       8.2156  33.2774  28.9621   O.3      803 RES803   0.0000
  9183 O6      28.9621  12.5309   8.2156   O.3      804 RES804   0.0000
  9184 O6      28.9621  12.5309  28.9621   O.3      805 RES805   0.0000
  9185 O6      28.9621  33.2774   8.2156   O.3      806 RES806   0.0000
  9186 O6      28.9621  33.2774  28.9621   O.3      807 RES807   0.0000
  9187 O6      12.5309  12.5309  12.5309   O.3      808 RES808   0.0000
  9188 O6      12.5309  12.5309  33.2774   O.3      809 RES809   0.0000
  9189 O6      12.5309  33.2774  12.5309   O.3      810 RES810   0.0000
  9190 O6      12.5309  33.2774  33.2774   O.3      811 RES811   0.0000
  9191 O6      33.2774  12.5309  12.5309   O.3      812 RES812   0.0000
  9192 O6      33.2774  12.5309  33.2774   O.3      813 RES813   0.0000
  9193 O6      33.2774  33.2774  12.5309   O.3      814 RES814   0.0000
  9194 O6      33.2774  33.2774  33.2774   O.3      815 RES815   0.0000
  9195 O6      12.5309   8.2156   8.2156   O.3      816 RES816   0.0000
  9196 O6      12.5309   8.2156  28.9621   O.3      817 RES817   0.0000
  9197 O6      12.5309  28.9621   8.2156   O.3      818 RES818   0.0000
  9198 O6      12.5309  28.9621  28.9621   O.3      819 RES819   0.0000
  9199 O6      33.2774   8.2156   8.2156   O.3      820 RES820   0.0000
  9200 O6      33.2774   8.2156  28.9621   O.3      821 RES821   0.0000
  9201 O6      33.2774  28.9621   8.2156   O.3      822 RES822   0.0000
  9202 O6      33.2774  28.9621  28.9621   O.3      823 RES823   0.0000
  9203 O6       8.2156   8.2156  12.5309   O.3      824 RES824   0.0000
  9204 O6       8.2156   8.2156  33.2774   O.3      825 RES825   0.0000
  9205 O6       8.2156  28.9621  12.5309   O.3      826 RES826   0.0000
  9206 O6       8.2156  28.9621  33.2774   O.3      827 RES827   0.0000
  9207 O6      28.9621   8.2156  12.5309   O.3      828 RES828   0.0000
  9208 O6      28.9621   8.2156  33.2774   O.3      829 RES829   0.0000
  9209 O6      28.9621  28.9621  12.5309   O.3      830 RES830   0.0000
  9210 O6      28.9621  28.9621  33.2774   O.3      831 RES831   0.0000
  9211 O5       7.7384   0.0000   0.0000   O.3      832 RES832   0.0000
  9212 O5       7.7384   0.0000  20.7465   O.3      833 RES833   0.0000
  9213 O5       7.7384   0.0000  41.4930   O.3      834 RES834   0.0000
  9214 O5       7.7384  20.7465   0.0000   O.3      835 RES835   0.0000
  9215 O5       7.7384  20.7465  20.7465   O.3      836 RES836   0.0000
  9216 O5       7.7384  20.7465  41.4930   O.3      837 RES837   0.0000
  9217 O5       7.7384  41.4930   0.0000   O.3      838 RES838   0.0000
  9218 O5       7.7384  41.4930  20.7465   O.3      839 RES839   0.0000
  9219 O5       7.7384  41.4930  41.4930   O.3      840 RES840   0.0000
  9220 O5      28.4849   0.0000   0.0000   O.3      841 RES841   0.0000
  9221 O5      28.4849   0.0000  20.7465   O.3      842 RES842   0.0000
  9222 O5      28.4849   0.0000  41.4930   O.3      843 RES843   0.0000
  9223 O5      28.4849  20.7465   0.0000   O.3      844 RES844   0.0000
  9224 O5      28.4849  20.7465  20.7465   O.3      845 RES845   0.0000
  9225 O5      28.4849  20.7465  41.4930   O.3      846 RES846   0.0000
  9226 O5      28.4849  41.4930   0.0000   O.3      847 RES847   0.0000
  9227 O5      28.4849  41.4930  20.7465   O.3      848 RES848   0.0000
  9228 O5      28.4849  41.4930  41.4930   O.3      849 RES849   0.0000
  9229 O5      13.0081   0.0000   0.0000   O.3      850 RES850   0.0000
  9230 O5      13.0081   0.0000  20.7465   O.3      851 RES851   0.0000
  9231 O5      13.0081   0.0000  41.4930   O.3      852 RES852   0.0000
  9232 O5      13.0081  20.7465   0.0000   O.3      853 RES853   0.0000
  9233 O5      13.0081  20.7465  20.7465   O.3      854 RES854   0.0000
  9234 O5      13.0081  20.7465  41.4930   O.3      855 RES855   0.0000
  9235 O5      13.0081  41.4930   0.0000   O.3      856 RES856   0.0000
  9236 O5      13.0081  41.4930  20.7465   O.3      857 RES857   0.0000
  9237 O5      13.0081  41.4930  41.4930   O.3      858 RES858   0.0000
  9238 O5      33.7546   0.0000   0.0000   O.3      859 RES859   0.0000
  9239 O5      33.7546   0.0000  20.7465   O.3      860 RES860   0.0000
  9240 O5      33.7546   0.0000  41.4930   O.3      861 RES861   0.0000
  9241 O5      33.7546  20.7465   0.0000   O.3      862 RES862   0.0000
  9242 O5      33.7546  20.7465  20.7465   O.3      863 RES863   0.0000
  9243 O5      33.7546  20.7465  41.4930   O.3      864 RES864   0.0000
  9244 O5      33.7546  41.4930   0.0000   O.3      865 RES865   0.0000
  9245 O5      33.7546  41.4930  20.7465   O.3      866 RES866   0.0000
  9246 O5      33.7546  41.4930  41.4930   O.3      867 RES867   0.0000
  9247 O5       0.0000   7.7384   0.0000   O.3      868 RES868   0.0000
  9248 O5       0.0000   7.7384  20.7465   O.3      869 RES869   0.0000
  9249 O5       0.0000   7.7384  41.4930   O.3      870 RES870   0.0000
  9250 O5       0.0000  28.4849   0.0000   O.3      871 RES871   0.0000
  9251 O5       0.0000  28.4849  20.7465   O.3      872 RES872   0.0000
  9252 O5       0.0000  28.4849  41.4930   O.3      873 RES873   0.0000
  9253 O5      20.7465   7.7384   0.0000   O.3      874 RES874   0.0000
  9254 O5      20.7465   7.7384  20.7465   O.3      875 RES875   0.0000
  9255 O5      20.7465   7.7384  41.4930   O.3      876 RES876   0.0000
  9256 O5      20.7465  28.4849   0.0000   O.3      877 RES877   0.0000
  9257 O5      20.7465  28.4849  20.7465   O.3      878 RES878   0.0000
  9258 O5      20.7465  28.4849  41.4930   O.3      879 RES879   0.0000
  9259 O5      41.4930   7.7384   0.0000   O.3      880 RES880   0.0000
  9260 O5      41.4930   7.7384  20.7465   O.3      881 RES881   0.0000
  9261 O5      41.4930   7.7384  41.4930   O.3      882 RES882   0.0000
  9262 O5      41.4930  28.4849   0.0000   O.3      883 RES883   0.0000
  9263 O5      41.4930  28.4849  20.7465   O.3      884 RES884   0.0000
  9264 O5      41.4930  28.4849  41.4930   O.3      885 RES885   0.0000
  9265 O5       0.0000  13.0081   0.0000   O.3      886 RES886   0.0000
  9266 O5       0.0000  13.0081  20.7465   O.3      887 RES887   0.0000
  9267 O5       0.0000  13.0081  41.4930   O.3      888 RES888   0.0000
  9268 O5       0.0000  33.7546   0.0000   O.3      889 RES889   0.0000
  9269 O5       0.0000  33.7546  20.7465   O.3      890 RES890   0.0000
  9270 O5       0.0000  33.7546  41.4930   O.3      891 RES891   0.0000
  9271 O5      20.7465  13.0081   0.0000   O.3      892 RES892   0.0000
  9272 O5      20.7465  13.0081  20.7465   O.3      893 RES893   0.0000
  9273 O5      20.7465  13.0081  41.4930   O.3      894 RES894   0.0000
  9274 O5      20.7465  33.7546   0.0000   O.3      895 RES895   0.0000
  9275 O5      20.7465  33.7546  20.7465   O.3      896 RES896   0.0000
  9276 O5      20.7465  33.7546  41.4930   O.3      897 RES897   0.0000
  9277 O5      41.4930  13.0081   0.0000   O.3      898 RES898   0.0000
  9278 O5      41.4930  13.0081  20.7465   O.3      899 RES899   0.0000
  9279 O5      41.4930  13.0081  41.4930   O.3      900 RES900   0.0000
  9280 O5      41.4930  33.7546   0.0000   O.3      901 RES901   0.0000
  9281 O5      41.4930  33.7546  20.7465   O.3      902 RES902   0.0000
  9282 O5      41.4930  33.7546  41.4930   O.3      903 RES903   0.0000
  9283 O5       0.0000   0.0000   7.7384   O.3      904 RES904   0.0000
  9284 O5       0.0000   0.0000  28.4849   O.3      905 RES905   0.0000
  9285 O5       0.0000  20.7465   7.7384   O.3      906 RES906   0.0000
  9286 O5       0.0000  20.7465  28.4849   O.3      907 RES907   0.0000
  9287 O5       0.0000  41.4930   7.7384   O.3      908 RES908   0.0000
  9288 O5       0.0000  41.4930  28.4849   O.3      909 RES909   0.0000
  9289 O5      20.7465   0.0000   7.7384   O.3      910 RES910   0.0000
  9290 O5      20.7465   0.0000  28.4849   O.3      911 RES911   0.0000
  9291 O5      20.7465  20.7465   7.7384   O.3      912 RES912   0.0000
  9292 O5      20.7465  20.7465  28.4849   O.3      913 RES913   0.0000
  9293 O5      20.7465  41.4930   7.7384   O.3      914 RES914   0.0000
  9294 O5      20.7465  41.4930  28.4849   O.3      915 RES915   0.0000
  9295 O5      41.4930   0.0000   7.7384   O.3      916 RES916   0.0000
  9296 O5      41.4930   0.0000  28.4849   O.3      917 RES917   0.0000
  9297 O5      41.4930  20.7465   7.7384   O.3      918 RES918   0.0000
  9298 O5      41.4930  20.7465  28.4849   O.3      919 RES919   0.0000
  9299 O5      41.4930  41.4930   7.7384   O.3      920 RES920   0.0000
  9300 O5      41.4930  41.4930  28.4849   O.3      921 RES921   0.0000
  9301 O5       0.0000   0.0000  13.0081   O.3      922 RES922   0.0000
  9302 O5       0.0000   0.0000  33.7546   O.3      923 RES923   0.0000
  9303 O5       0.0000  20.7465  13.0081   O.3      924 RES924   0.0000
  9304 O5       0.0000  20.7465  33.7546   O.3      925 RES925   0.0000
  9305 O5       0.0000  41.4930  13.0081   O.3      926 RES926   0.0000
  9306 O5       0.0000  41.4930  33.7546   O.3      927 RES927   0.0000
  9307 O5      20.7465   0.0000  13.0081   O.3      928 RES928   0.0000
  9308 O5      20.7465   0.0000  33.7546   O.3      929 RES929   0.0000
  9309 O5      20.7465  20.7465  13.0081   O.3      930 RES930   0.0000
  9310 O5      20.7465  20.7465  33.7546   O.3      931 RES931   0.0000
  9311 O5      20.7465  41.4930  13.0081   O.3      932 RES932   0.0000
  9312 O5      20.7465  41.4930  33.7546   O.3      933 RES933   0.0000
  9313 O5      41.4930   0.0000  13.0081   O.3      934 RES934   0.0000
  9314 O5      41.4930   0.0000  33.7546   O.3      935 RES935   0.0000
  9315 O5      41.4930  20.7465  13.0081   O.3      936 RES936   0.0000
  9316 O5      41.4930  20.7465  33.7546   O.3      937 RES937   0.0000
  9317 O5      41.4930  41.4930  13.0081   O.3      938 RES938   0.0000
  9318 O5      41.4930  41.4930  33.7546   O.3      939 RES939   0.0000
  9319 O5       7.7384  10.3733  10.3733   O.3      940 RES940   0.0000
  9320 O5       7.7384  10.3733  31.1198   O.3      941 RES941   0.0000
  9321 O5       7.7384  31.1198  10.3733   O.3      942 RES942   0.0000
  9322 O5       7.7384  31.1198  31.1198   O.3      943 RES943   0.0000
  9323 O5      28.4849  10.3733  10.3733   O.3      944 RES944   0.0000
  9324 O5      28.4849  10.3733  31.1198   O.3      945 RES945   0.0000
  9325 O5      28.4849  31.1198  10.3733   O.3      946 RES946   0.0000
  9326 O5      28.4849  31.1198  31.1198   O.3      947 RES947   0.0000
  9327 O5      13.0081  10.3733  10.3733   O.3      948 RES948   0.0000
  9328 O5      13.0081  10.3733  31.1198   O.3      949 RES949   0.0000
  9329 O5      13.0081  31.1198  10.3733   O.3      950 RES950   0.0000
  9330 O5      13.0081  31.1198  31.1198   O.3      951 RES951   0.0000
  9331 O5      33.7546  10.3733  10.3733   O.3      952 RES952   0.0000
  9332 O5      33.7546  10.3733  31.1198   O.3      953 RES953   0.0000
  9333 O5      33.7546  31.1198  10.3733   O.3      954 RES954   0.0000
  9334 O5      33.7546  31.1198  31.1198   O.3      955 RES955   0.0000
  9335 O5       0.0000  18.1117  10.3733   O.3      956 RES956   0.0000
  9336 O5       0.0000  18.1117  31.1198   O.3      957 RES957   0.0000
  9337 O5       0.0000  38.8582  10.3733   O.3      958 RES958   0.0000
  9338 O5       0.0000  38.8582  31.1198   O.3      959 RES959   0.0000
  9339 O5      20.7465  18.1117  10.3733   O.3      960 RES960   0.0000
  9340 O5      20.7465  18.1117  31.1198   O.3      961 RES961   0.0000
  9341 O5      20.7465  38.8582  10.3733   O.3      962 RES962   0.0000
  9342 O5      20.7465  38.8582  31.1198   O.3      963 RES963   0.0000
  9343 O5      41.4930  18.1117  10.3733   O.3      964 RES964   0.0000
  9344 O5      41.4930  18.1117  31.1198   O.3      965 RES965   0.0000
  9345 O5      41.4930  38.8582  10.3733   O.3      966 RES966   0.0000
  9346 O5      41.4930  38.8582  31.1198   O.3      967 RES967   0.0000
  9347 O5       0.0000   2.6348  10.3733   O.3      968 RES968   0.0000
  9348 O5       0.0000   2.6348  31.1198   O.3      969 RES969   0.0000
  9349 O5       0.0000  23.3813  10.3733   O.3      970 RES970   0.0000
  9350 O5       0.0000  23.3813  31.1198   O.3      971 RES971   0.0000
  9351 O5      20.7465   2.6348  10.3733   O.3      972 RES972   0.0000
  9352 O5      20.7465   2.6348  31.1198   O.3      973 RES973   0.0000
  9353 O5      20.7465  23.3813  10.3733   O.3      974 RES974   0.0000
  9354 O5      20.7465  23.3813  31.1198   O.3      975 RES975   0.0000
  9355 O5      41.4930   2.6348  10.3733   O.3      976 RES976   0.0000
  9356 O5      41.4930   2.6348  31.1198   O.3      977 RES977   0.0000
  9357 O5      41.4930  23.3813  10.3733   O.3      978 RES978   0.0000
  9358 O5      41.4930  23.3813  31.1198   O.3      979 RES979   0.0000
  9359 O5       0.0000  10.3733  18.1117   O.3      980 RES980   0.0000
  9360 O5       0.0000  10.3733  38.8582   O.3      981 RES981   0.0000
  9361 O5       0.0000  31.1198  18.1117   O.3      982 RES982   0.0000
  9362 O5       0.0000  31.1198  38.8582   O.3      983 RES983   0.0000
  9363 O5      20.7465  10.3733  18.1117   O.3      984 RES984   0.0000
  9364 O5      20.7465  10.3733  38.8582   O.3      985 RES985   0.0000
  9365 O5      20.7465  31.1198  18.1117   O.3      986 RES986   0.0000
  9366 O5      20.7465  31.1198  38.8582   O.3      987 RES987   0.0000
  9367 O5      41.4930  10.3733  18.1117   O.3      988 RES988   0.0000
  9368 O5      41.4930  10.3733  38.8582   O.3      989 RES989   0.0000
  9369 O5      41.4930  31.1198  18.1117   O.3      990 RES990   0.0000
  9370 O5      41.4930  31.1198  38.8582   O.3      991 RES991   0.0000
  9371 O5       0.0000  10.3733   2.6348   O.3      992 RES992   0.0000
  9372 O5       0.0000  10.3733  23.3813   O.3      993 RES993   0.0000
  9373 O5       0.0000  31.1198   2.6348   O.3      994 RES994   0.0000
  9374 O5       0.0000  31.1198  23.3813   O.3      995 RES995   0.0000
  9375 O5      20.7465  10.3733   2.6348   O.3      996 RES996   0.0000
  9376 O5      20.7465  10.3733  23.3813   O.3      997 RES997   0.0000
  9377 O5      20.7465  31.1198   2.6348   O.3      998 RES998   0.0000
  9378 O5      20.7465  31.1198  23.3813   O.3      999 RES999   0.0000
  9379 O5      41.4930  10.3733   2.6348   O.3      1000 RES1000   0.0000
  9380 O5      41.4930  10.3733  23.3813   O.3      1001 RES1001   0.0000
  9381 O5      41.4930  31.1198   2.6348   O.3      1002 RES1002   0.0000
  9382 O5      41.4930  31.1198  23.3813   O.3      1003 RES1003   0.0000
  9383 O5      18.1117   0.0000  10.3733   O.3      1004 RES1004   0.0000
  9384 O5      18.1117   0.0000  31.1198   O.3      1005 RES1005   0.0000
  9385 O5      18.1117  20.7465  10.3733   O.3      1006 RES1006   0.0000
  9386 O5      18.1117  20.7465  31.1198   O.3      1007 RES1007   0.0000
  9387 O5      18.1117  41.4930  10.3733   O.3      1008 RES1008   0.0000
  9388 O5      18.1117  41.4930  31.1198   O.3      1009 RES1009   0.0000
  9389 O5      38.8582   0.0000  10.3733   O.3      1010 RES1010   0.0000
  9390 O5      38.8582   0.0000  31.1198   O.3      1011 RES1011   0.0000
  9391 O5      38.8582  20.7465  10.3733   O.3      1012 RES1012   0.0000
  9392 O5      38.8582  20.7465  31.1198   O.3      1013 RES1013   0.0000
  9393 O5      38.8582  41.4930  10.3733   O.3      1014 RES1014   0.0000
  9394 O5      38.8582  41.4930  31.1198   O.3      1015 RES1015   0.0000
  9395 O5       2.6348   0.0000  10.3733   O.3      1016 RES1016   0.0000
  9396 O5       2.6348   0.0000  31.1198   O.3      1017 RES1017   0.0000
  9397 O5       2.6348  20.7465  10.3733   O.3      1018 RES1018   0.0000
  9398 O5       2.6348  20.7465  31.1198   O.3      1019 RES1019   0.0000
  9399 O5       2.6348  41.4930  10.3733   O.3      1020 RES1020   0.0000
  9400 O5       2.6348  41.4930  31.1198   O.3      1021 RES1021   0.0000
  9401 O5      23.3813   0.0000  10.3733   O.3      1022 RES1022   0.0000
  9402 O5      23.3813   0.0000  31.1198   O.3      1023 RES1023   0.0000
  9403 O5      23.3813  20.7465  10.3733   O.3      1024 RES1024   0.0000
  9404 O5      23.3813  20.7465  31.1198   O.3      1025 RES1025   0.0000
  9405 O5      23.3813  41.4930  10.3733   O.3      1026 RES1026   0.0000
  9406 O5      23.3813  41.4930  31.1198   O.3      1027 RES1027   0.0000
  9407 O5      10.3733   7.7384  10.3733   O.3      1028 RES1028   0.0000
  9408 O5      10.3733   7.7384  31.1198   O.3      1029 RES1029   0.0000
  9409 O5      10.3733  28.4849  10.3733   O.3      1030 RES1030   0.0000
  9410 O5      10.3733  28.4849  31.1198   O.3      1031 RES1031   0.0000
  9411 O5      31.1198   7.7384  10.3733   O.3      1032 RES1032   0.0000
  9412 O5      31.1198   7.7384  31.1198   O.3      1033 RES1033   0.0000
  9413 O5      31.1198  28.4849  10.3733   O.3      1034 RES1034   0.0000
  9414 O5      31.1198  28.4849  31.1198   O.3      1035 RES1035   0.0000
  9415 O5      10.3733  13.0081  10.3733   O.3      1036 RES1036   0.0000
  9416 O5      10.3733  13.0081  31.1198   O.3      1037 RES1037   0.0000
  9417 O5      10.3733  33.7546  10.3733   O.3      1038 RES1038   0.0000
  9418 O5      10.3733  33.7546  31.1198   O.3      1039 RES1039   0.0000
  9419 O5      31.1198  13.0081  10.3733   O.3      1040 RES1040   0.0000
  9420 O5      31.1198  13.0081  31.1198   O.3      1041 RES1041   0.0000
  9421 O5      31.1198  33.7546  10.3733   O.3      1042 RES1042   0.0000
  9422 O5      31.1198  33.7546  31.1198   O.3      1043 RES1043   0.0000
  9423 O5      10.3733   0.0000  18.1117   O.3      1044 RES1044   0.0000
  9424 O5      10.3733   0.0000  38.8582   O.3      1045 RES1045   0.0000
  9425 O5      10.3733  20.7465  18.1117   O.3      1046 RES1046   0.0000
  9426 O5      10.3733  20.7465  38.8582   O.3      1047 RES1047   0.0000
  9427 O5      10.3733  41.4930  18.1117   O.3      1048 RES1048   0.0000
  9428 O5      10.3733  41.4930  38.8582   O.3      1049 RES1049   0.0000
  9429 O5      31.1198   0.0000  18.1117   O.3      1050 RES1050   0.0000
  9430 O5      31.1198   0.0000  38.8582   O.3      1051 RES1051   0.0000
  9431 O5      31.1198  20.7465  18.1117   O.3      1052 RES1052   0.0000
  9432 O5      31.1198  20.7465  38.8582   O.3      1053 RES1053   0.0000
  9433 O5      31.1198  41.4930  18.1117   O.3      1054 RES1054   0.0000
  9434 O5      31.1198  41.4930  38.8582   O.3      1055 RES1055   0.0000
  9435 O5      10.3733   0.0000   2.6348   O.3      1056 RES1056   0.0000
  9436 O5      10.3733   0.0000  23.3813   O.3      1057 RES1057   0.0000
  9437 O5      10.3733  20.7465   2.6348   O.3      1058 RES1058   0.0000
  9438 O5      10.3733  20.7465  23.3813   O.3      1059 RES1059   0.0000
  9439 O5      10.3733  41.4930   2.6348   O.3      1060 RES1060   0.0000
  9440 O5      10.3733  41.4930  23.3813   O.3      1061 RES1061   0.0000
  9441 O5      31.1198   0.0000   2.6348   O.3      1062 RES1062   0.0000
  9442 O5      31.1198   0.0000  23.3813   O.3      1063 RES1063   0.0000
  9443 O5      31.1198  20.7465   2.6348   O.3      1064 RES1064   0.0000
  9444 O5      31.1198  20.7465  23.3813   O.3      1065 RES1065   0.0000
  9445 O5      31.1198  41.4930   2.6348   O.3      1066 RES1066   0.0000
  9446 O5      31.1198  41.4930  23.3813   O.3      1067 RES1067   0.0000
  9447 O5      18.1117  10.3733   0.0000   O.3      1068 RES1068   0.0000
  9448 O5      18.1117  10.3733  20.7465   O.3      1069 RES1069   0.0000
  9449 O5      18.1117  10.3733  41.4930   O.3      1070 RES1070   0.0000
  9450 O5      18.1117  31.1198   0.0000   O.3      1071 RES1071   0.0000
  9451 O5      18.1117  31.1198  20.7465   O.3      1072 RES1072   0.0000
  9452 O5      18.1117  31.1198  41.4930   O.3      1073 RES1073   0.0000
  9453 O5      38.8582  10.3733   0.0000   O.3      1074 RES1074   0.0000
  9454 O5      38.8582  10.3733  20.7465   O.3      1075 RES1075   0.0000
  9455 O5      38.8582  10.3733  41.4930   O.3      1076 RES1076   0.0000
  9456 O5      38.8582  31.1198   0.0000   O.3      1077 RES1077   0.0000
  9457 O5      38.8582  31.1198  20.7465   O.3      1078 RES1078   0.0000
  9458 O5      38.8582  31.1198  41.4930   O.3      1079 RES1079   0.0000
  9459 O5       2.6348  10.3733   0.0000   O.3      1080 RES1080   0.0000
  9460 O5       2.6348  10.3733  20.7465   O.3      1081 RES1081   0.0000
  9461 O5       2.6348  10.3733  41.4930   O.3      1082 RES1082   0.0000
  9462 O5       2.6348  31.1198   0.0000   O.3      1083 RES1083   0.0000
  9463 O5       2.6348  31.1198  20.7465   O.3      1084 RES1084   0.0000
  9464 O5       2.6348  31.1198  41.4930   O.3      1085 RES1085   0.0000
  9465 O5      23.3813  10.3733   0.0000   O.3      1086 RES1086   0.0000
  9466 O5      23.3813  10.3733  20.7465   O.3      1087 RES1087   0.0000
  9467 O5      23.3813  10.3733  41.4930   O.3      1088 RES1088   0.0000
  9468 O5      23.3813  31.1198   0.0000   O.3      1089 RES1089   0.0000
  9469 O5      23.3813  31.1198  20.7465   O.3      1090 RES1090   0.0000
  9470 O5      23.3813  31.1198  41.4930   O.3      1091 RES1091   0.0000
  9471 O5      10.3733  18.1117   0.0000   O.3      1092 RES1092   0.0000
  9472 O5      10.3733  18.1117  20.7465   O.3      1093 RES1093   0.0000
  9473 O5      10.3733  18.1117  41.4930   O.3      1094 RES1094   0.0000
  9474 O5      10.3733  38.8582   0.0000   O.3      1095 RES1095   0.0000
  9475 O5      10.3733  38.8582  20.7465   O.3      1096 RES1096   0.0000
  9476 O5      10.3733  38.8582  41.4930   O.3      1097 RES1097   0.0000
  9477 O5      31.1198  18.1117   0.0000   O.3      1098 RES1098   0.0000
  9478 O5      31.1198  18.1117  20.7465   O.3      1099 RES1099   0.0000
  9479 O5      31.1198  18.1117  41.4930   O.3      1100 RES1100   0.0000
  9480 O5      31.1198  38.8582   0.0000   O.3      1101 RES1101   0.0000
  9481 O5      31.1198  38.8582  20.7465   O.3      1102 RES1102   0.0000
  9482 O5      31.1198  38.8582  41.4930   O.3      1103 RES1103   0.0000
  9483 O5      10.3733   2.6348   0.0000   O.3      1104 RES1104   0.0000
  9484 O5      10.3733   2.6348  20.7465   O.3      1105 RES1105   0.0000
  9485 O5      10.3733   2.6348  41.4930   O.3      1106 RES1106   0.0000
  9486 O5      10.3733  23.3813   0.0000   O.3      1107 RES1107   0.0000
  9487 O5      10.3733  23.3813  20.7465   O.3      1108 RES1108   0.0000
  9488 O5      10.3733  23.3813  41.4930   O.3      1109 RES1109   0.0000
  9489 O5      31.1198   2.6348   0.0000   O.3      1110 RES1110   0.0000
  9490 O5      31.1198   2.6348  20.7465   O.3      1111 RES1111   0.0000
  9491 O5      31.1198   2.6348  41.4930   O.3      1112 RES1112   0.0000
  9492 O5      31.1198  23.3813   0.0000   O.3      1113 RES1113   0.0000
  9493 O5      31.1198  23.3813  20.7465   O.3      1114 RES1114   0.0000
  9494 O5      31.1198  23.3813  41.4930   O.3      1115 RES1115   0.0000
  9495 O5      10.3733  10.3733   7.7384   O.3      1116 RES1116   0.0000
  9496 O5      10.3733  10.3733  28.4849   O.3      1117 RES1117   0.0000
  9497 O5      10.3733  31.1198   7.7384   O.3      1118 RES1118   0.0000
  9498 O5      10.3733  31.1198  28.4849   O.3      1119 RES1119   0.0000
  9499 O5      31.1198  10.3733   7.7384   O.3      1120 RES1120   0.0000
  9500 O5      31.1198  10.3733  28.4849   O.3      1121 RES1121   0.0000
  9501 O5      31.1198  31.1198   7.7384   O.3      1122 RES1122   0.0000
  9502 O5      31.1198  31.1198  28.4849   O.3      1123 RES1123   0.0000
  9503 O5      10.3733  10.3733  13.0081   O.3      1124 RES1124   0.0000
  9504 O5      10.3733  10.3733  33.7546   O.3      1125 RES1125   0.0000
  9505 O5      10.3733  31.1198  13.0081   O.3      1126 RES1126   0.0000
  9506 O5      10.3733  31.1198  33.7546   O.3      1127 RES1127   0.0000
  9507 O5      31.1198  10.3733  13.0081   O.3      1128 RES1128   0.0000
  9508 O5      31.1198  10.3733  33.7546   O.3      1129 RES1129   0.0000
  9509 O5      31.1198  31.1198  13.0081   O.3      1130 RES1130   0.0000
  9510 O5      31.1198  31.1198  33.7546   O.3      1131 RES1131   0.0000
  9511 O1B     19.3482  19.3482   1.3983   O.3      1132 RES1132   0.0000
  9512 O1B     19.3482  19.3482  22.1448   O.3      1133 RES1133   0.0000
  9513 O1B     19.3482  40.0947   1.3983   O.3      1134 RES1134   0.0000
  9514 O1B     19.3482  40.0947  22.1448   O.3      1135 RES1135   0.0000
  9515 O1B     40.0947  19.3482   1.3983   O.3      1136 RES1136   0.0000
  9516 O1B     40.0947  19.3482  22.1448   O.3      1137 RES1137   0.0000
  9517 O1B     40.0947  40.0947   1.3983   O.3      1138 RES1138   0.0000
  9518 O1B     40.0947  40.0947  22.1448   O.3      1139 RES1139   0.0000
  9519 O1B      1.3983   1.3983   1.3983   O.3      1140 RES1140   0.0000
  9520 O1B      1.3983   1.3983  22.1448   O.3      1141 RES1141   0.0000
  9521 O1B      1.3983  22.1448   1.3983   O.3      1142 RES1142   0.0000
  9522 O1B      1.3983  22.1448  22.1448   O.3      1143 RES1143   0.0000
  9523 O1B     22.1448   1.3983   1.3983   O.3      1144 RES1144   0.0000
  9524 O1B     22.1448   1.3983  22.1448   O.3      1145 RES1145   0.0000
  9525 O1B     22.1448  22.1448   1.3983   O.3      1146 RES1146   0.0000
  9526 O1B     22.1448  22.1448  22.1448   O.3      1147 RES1147   0.0000
  9527 O1B      1.3983  19.3482  19.3482   O.3      1148 RES1148   0.0000
  9528 O1B      1.3983  19.3482  40.0947   O.3      1149 RES1149   0.0000
  9529 O1B      1.3983  40.0947  19.3482   O.3      1150 RES1150   0.0000
  9530 O1B      1.3983  40.0947  40.0947   O.3      1151 RES1151   0.0000
  9531 O1B     22.1448  19.3482  19.3482   O.3      1152 RES1152   0.0000
  9532 O1B     22.1448  19.3482  40.0947   O.3      1153 RES1153   0.0000
  9533 O1B     22.1448  40.0947  19.3482   O.3      1154 RES1154   0.0000
  9534 O1B     22.1448  40.0947  40.0947   O.3      1155 RES1155   0.0000
  9535 O1B     19.3482   1.3983  19.3482   O.3      1156 RES1156   0.0000
  9536 O1B     19.3482   1.3983  40.0947   O.3      1157 RES1157   0.0000
  9537 O1B     19.3482  22.1448  19.3482   O.3      1158 RES1158   0.0000
  9538 O1B     19.3482  22.1448  40.0947   O.3      1159 RES1159   0.0000
  9539 O1B     40.0947   1.3983  19.3482   O.3      1160 RES1160   0.0000
  9540 O1B     40.0947   1.3983  40.0947   O.3      1161 RES1161   0.0000
  9541 O1B     40.0947  22.1448  19.3482   O.3      1162 RES1162   0.0000
  9542 O1B     40.0947  22.1448  40.0947   O.3      1163 RES1163   0.0000
  9543 O1B     19.3482  19.3482  19.3482   O.3      1164 RES1164   0.0000
  9544 O1B     19.3482  19.3482  40.0947   O.3      1165 RES1165   0.0000
  9545 O1B     19.3482  40.0947  19.3482   O.3      1166 RES1166   0.0000
  9546 O1B     19.3482  40.0947  40.0947   O.3      1167 RES1167   0.0000
  9547 O1B     40.0947  19.3482  19.3482   O.3      1168 RES1168   0.0000
  9548 O1B     40.0947  19.3482  40.0947   O.3      1169 RES1169   0.0000
  9549 O1B     40.0947  40.0947  19.3482   O.3      1170 RES1170   0.0000
  9550 O1B     40.0947  40.0947  40.0947   O.3      1171 RES1171   0.0000
  9551 O1B      1.3983   1.3983  19.3482   O.3      1172 RES1172   0.0000
  9552 O1B      1.3983   1.3983  40.0947   O.3      1173 RES1173   0.0000
  9553 O1B      1.3983  22.1448  19.3482   O.3      1174 RES1174   0.0000
  9554 O1B      1.3983  22.1448  40.0947   O.3      1175 RES1175   0.0000
  9555 O1B     22.1448   1.3983  19.3482   O.3      1176 RES1176   0.0000
  9556 O1B     22.1448   1.3983  40.0947   O.3      1177 RES1177   0.0000
  9557 O1B     22.1448  22.1448  19.3482   O.3      1178 RES1178   0.0000
  9558 O1B     22.1448  22.1448  40.0947   O.3      1179 RES1179   0.0000
  9559 O1B     19.3482   1.3983   1.3983   O.3      1180 RES1180   0.0000
  9560 O1B     19.3482   1.3983  22.1448   O.3      1181 RES1181   0.0000
  9561 O1B     19.3482  22.1448   1.3983   O.3      1182 RES1182   0.0000
  9562 O1B     19.3482  22.1448  22.1448   O.3      1183 RES1183   0.0000
  9563 O1B     40.0947   1.3983   1.3983   O.3      1184 RES1184   0.0000
  9564 O1B     40.0947   1.3983  22.1448   O.3      1185 RES1185   0.0000
  9565 O1B     40.0947  22.1448   1.3983   O.3      1186 RES1186   0.0000
  9566 O1B     40.0947  22.1448  22.1448   O.3      1187 RES1187   0.0000
  9567 O1B      1.3983  19.3482   1.3983   O.3      1188 RES1188   0.0000
  9568 O1B      1.3983  19.3482  22.1448   O.3      1189 RES1189   0.0000
  9569 O1B      1.3983  40.0947   1.3983   O.3      1190 RES1190   0.0000
  9570 O1B      1.3983  40.0947  22.1448   O.3      1191 RES1191   0.0000
  9571 O1B     22.1448  19.3482   1.3983   O.3      1192 RES1192   0.0000
  9572 O1B     22.1448  19.3482  22.1448   O.3      1193 RES1193   0.0000
  9573 O1B     22.1448  40.0947   1.3983   O.3      1194 RES1194   0.0000
  9574 O1B     22.1448  40.0947  22.1448   O.3      1195 RES1195   0.0000
  9575 O1B     19.3482   8.9749  11.7716   O.3      1196 RES1196   0.0000
  9576 O1B     19.3482   8.9749  32.5181   O.3      1197 RES1197   0.0000
  9577 O1B     19.3482  29.7214  11.7716   O.3      1198 RES1198   0.0000
  9578 O1B     19.3482  29.7214  32.5181   O.3      1199 RES1199   0.0000
  9579 O1B     40.0947   8.9749  11.7716   O.3      1200 RES1200   0.0000
  9580 O1B     40.0947   8.9749  32.5181   O.3      1201 RES1201   0.0000
  9581 O1B     40.0947  29.7214  11.7716   O.3      1202 RES1202   0.0000
  9582 O1B     40.0947  29.7214  32.5181   O.3      1203 RES1203   0.0000
  9583 O1B      1.3983  11.7716  11.7716   O.3      1204 RES1204   0.0000
  9584 O1B      1.3983  11.7716  32.5181   O.3      1205 RES1205   0.0000
  9585 O1B      1.3983  32.5181  11.7716   O.3      1206 RES1206   0.0000
  9586 O1B      1.3983  32.5181  32.5181   O.3      1207 RES1207   0.0000
  9587 O1B     22.1448  11.7716  11.7716   O.3      1208 RES1208   0.0000
  9588 O1B     22.1448  11.7716  32.5181   O.3      1209 RES1209   0.0000
  9589 O1B     22.1448  32.5181  11.7716   O.3      1210 RES1210   0.0000
  9590 O1B     22.1448  32.5181  32.5181   O.3      1211 RES1211   0.0000
  9591 O1B      1.3983   8.9749   8.9749   O.3      1212 RES1212   0.0000
  9592 O1B      1.3983   8.9749  29.7214   O.3      1213 RES1213   0.0000
  9593 O1B      1.3983  29.7214   8.9749   O.3      1214 RES1214   0.0000
  9594 O1B      1.3983  29.7214  29.7214   O.3      1215 RES1215   0.0000
  9595 O1B     22.1448   8.9749   8.9749   O.3      1216 RES1216   0.0000
  9596 O1B     22.1448   8.9749  29.7214   O.3      1217 RES1217   0.0000
  9597 O1B     22.1448  29.7214   8.9749   O.3      1218 RES1218   0.0000
  9598 O1B     22.1448  29.7214  29.7214   O.3      1219 RES1219   0.0000
  9599 O1B     19.3482  11.7716   8.9749   O.3      1220 RES1220   0.0000
  9600 O1B     19.3482  11.7716  29.7214   O.3      1221 RES1221   0.0000
  9601 O1B     19.3482  32.5181   8.9749   O.3      1222 RES1222   0.0000
  9602 O1B     19.3482  32.5181  29.7214   O.3      1223 RES1223   0.0000
  9603 O1B     40.0947  11.7716   8.9749   O.3      1224 RES1224   0.0000
  9604 O1B     40.0947  11.7716  29.7214   O.3      1225 RES1225   0.0000
  9605 O1B     40.0947  32.5181   8.9749   O.3      1226 RES1226   0.0000
  9606 O1B     40.0947  32.5181  29.7214   O.3      1227 RES1227   0.0000
  9607 O1B     19.3482   8.9749   8.9749   O.3      1228 RES1228   0.0000
  9608 O1B     19.3482   8.9749  29.7214   O.3      1229 RES1229   0.0000
  9609 O1B     19.3482  29.7214   8.9749   O.3      1230 RES1230   0.0000
  9610 O1B     19.3482  29.7214  29.7214   O.3      1231 RES1231   0.0000
  9611 O1B     40.0947   8.9749   8.9749   O.3      1232 RES1232   0.0000
  9612 O1B     40.0947   8.9749  29.7214   O.3      1233 RES1233   0.0000
  9613 O1B     40.0947  29.7214   8.9749   O.3      1234 RES1234   0.0000
  9614 O1B     40.0947  29.7214  29.7214   O.3      1235 RES1235   0.0000
  9615 O1B      1.3983  11.7716   8.9749   O.3      1236 RES1236   0.0000
  9616 O1B      1.3983  11.7716  29.7214   O.3      1237 RES1237   0.0000
  9617 O1B      1.3983  32.5181   8.9749   O.3      1238 RES1238   0.0000
  9618 O1B      1.3983  32.5181  29.7214   O.3      1239 RES1239   0.0000
  9619 O1B     22.1448  11.7716   8.9749   O.3      1240 RES1240   0.0000
  9620 O1B     22.1448  11.7716  29.7214   O.3      1241 RES1241   0.0000
  9621 O1B     22.1448  32.5181   8.9749   O.3      1242 RES1242   0.0000
  9622 O1B     22.1448  32.5181  29.7214   O.3      1243 RES1243   0.0000
  9623 O1B     19.3482  11.7716  11.7716   O.3      1244 RES1244   0.0000
  9624 O1B     19.3482  11.7716  32.5181   O.3      1245 RES1245   0.0000
  9625 O1B     19.3482  32.5181  11.7716   O.3      1246 RES1246   0.0000
  9626 O1B     19.3482  32.5181  32.5181   O.3      1247 RES1247   0.0000
  9627 O1B     40.0947  11.7716  11.7716   O.3      1248 RES1248   0.0000
  9628 O1B     40.0947  11.7716  32.5181   O.3      1249 RES1249   0.0000
  9629 O1B     40.0947  32.5181  11.7716   O.3      1250 RES1250   0.0000
  9630 O1B     40.0947  32.5181  32.5181   O.3      1251 RES1251   0.0000
  9631 O1B      1.3983   8.9749  11.7716   O.3      1252 RES1252   0.0000
  9632 O1B      1.3983   8.9749  32.5181   O.3      1253 RES1253   0.0000
  9633 O1B      1.3983  29.7214  11.7716   O.3      1254 RES1254   0.0000
  9634 O1B      1.3983  29.7214  32.5181   O.3      1255 RES1255   0.0000
  9635 O1B     22.1448   8.9749  11.7716   O.3      1256 RES1256   0.0000
  9636 O1B     22.1448   8.9749  32.5181   O.3      1257 RES1257   0.0000
  9637 O1B     22.1448  29.7214  11.7716   O.3      1258 RES1258   0.0000
  9638 O1B     22.1448  29.7214  32.5181   O.3      1259 RES1259   0.0000
  9639 O1B      8.9749  19.3482  11.7716   O.3      1260 RES1260   0.0000
  9640 O1B      8.9749  19.3482  32.5181   O.3      1261 RES1261   0.0000
  9641 O1B      8.9749  40.0947  11.7716   O.3      1262 RES1262   0.0000
  9642 O1B      8.9749  40.0947  32.5181   O.3      1263 RES1263   0.0000
  9643 O1B     29.7214  19.3482  11.7716   O.3      1264 RES1264   0.0000
  9644 O1B     29.7214  19.3482  32.5181   O.3      1265 RES1265   0.0000
  9645 O1B     29.7214  40.0947  11.7716   O.3      1266 RES1266   0.0000
  9646 O1B     29.7214  40.0947  32.5181   O.3      1267 RES1267   0.0000
  9647 O1B     11.7716   1.3983  11.7716   O.3      1268 RES1268   0.0000
  9648 O1B     11.7716   1.3983  32.5181   O.3      1269 RES1269   0.0000
  9649 O1B     11.7716  22.1448  11.7716   O.3      1270 RES1270   0.0000
  9650 O1B     11.7716  22.1448  32.5181   O.3      1271 RES1271   0.0000
  9651 O1B     32.5181   1.3983  11.7716   O.3      1272 RES1272   0.0000
  9652 O1B     32.5181   1.3983  32.5181   O.3      1273 RES1273   0.0000
  9653 O1B     32.5181  22.1448  11.7716   O.3      1274 RES1274   0.0000
  9654 O1B     32.5181  22.1448  32.5181   O.3      1275 RES1275   0.0000
  9655 O1B     11.7716  19.3482   8.9749   O.3      1276 RES1276   0.0000
  9656 O1B     11.7716  19.3482  29.7214   O.3      1277 RES1277   0.0000
  9657 O1B     11.7716  40.0947   8.9749   O.3      1278 RES1278   0.0000
  9658 O1B     11.7716  40.0947  29.7214   O.3      1279 RES1279   0.0000
  9659 O1B     32.5181  19.3482   8.9749   O.3      1280 RES1280   0.0000
  9660 O1B     32.5181  19.3482  29.7214   O.3      1281 RES1281   0.0000
  9661 O1B     32.5181  40.0947   8.9749   O.3      1282 RES1282   0.0000
  9662 O1B     32.5181  40.0947  29.7214   O.3      1283 RES1283   0.0000
  9663 O1B      8.9749   1.3983   8.9749   O.3      1284 RES1284   0.0000
  9664 O1B      8.9749   1.3983  29.7214   O.3      1285 RES1285   0.0000
  9665 O1B      8.9749  22.1448   8.9749   O.3      1286 RES1286   0.0000
  9666 O1B      8.9749  22.1448  29.7214   O.3      1287 RES1287   0.0000
  9667 O1B     29.7214   1.3983   8.9749   O.3      1288 RES1288   0.0000
  9668 O1B     29.7214   1.3983  29.7214   O.3      1289 RES1289   0.0000
  9669 O1B     29.7214  22.1448   8.9749   O.3      1290 RES1290   0.0000
  9670 O1B     29.7214  22.1448  29.7214   O.3      1291 RES1291   0.0000
  9671 O1B      8.9749  19.3482   8.9749   O.3      1292 RES1292   0.0000
  9672 O1B      8.9749  19.3482  29.7214   O.3      1293 RES1293   0.0000
  9673 O1B      8.9749  40.0947   8.9749   O.3      1294 RES1294   0.0000
  9674 O1B      8.9749  40.0947  29.7214   O.3      1295 RES1295   0.0000
  9675 O1B     29.7214  19.3482   8.9749   O.3      1296 RES1296   0.0000
  9676 O1B     29.7214  19.3482  29.7214   O.3      1297 RES1297   0.0000
  9677 O1B     29.7214  40.0947   8.9749   O.3      1298 RES1298   0.0000
  9678 O1B     29.7214  40.0947  29.7214   O.3      1299 RES1299   0.0000
  9679 O1B     11.7716   1.3983   8.9749   O.3      1300 RES1300   0.0000
  9680 O1B     11.7716   1.3983  29.7214   O.3      1301 RES1301   0.0000
  9681 O1B     11.7716  22.1448   8.9749   O.3      1302 RES1302   0.0000
  9682 O1B     11.7716  22.1448  29.7214   O.3      1303 RES1303   0.0000
  9683 O1B     32.5181   1.3983   8.9749   O.3      1304 RES1304   0.0000
  9684 O1B     32.5181   1.3983  29.7214   O.3      1305 RES1305   0.0000
  9685 O1B     32.5181  22.1448   8.9749   O.3      1306 RES1306   0.0000
  9686 O1B     32.5181  22.1448  29.7214   O.3      1307 RES1307   0.0000
  9687 O1B      8.9749   1.3983  11.7716   O.3      1308 RES1308   0.0000
  9688 O1B      8.9749   1.3983  32.5181   O.3      1309 RES1309   0.0000
  9689 O1B      8.9749  22.1448  11.7716   O.3      1310 RES1310   0.0000
  9690 O1B      8.9749  22.1448  32.5181   O.3      1311 RES1311   0.0000
  9691 O1B     29.7214   1.3983  11.7716   O.3      1312 RES1312   0.0000
  9692 O1B     29.7214   1.3983  32.5181   O.3      1313 RES1313   0.0000
  9693 O1B     29.7214  22.1448  11.7716   O.3      1314 RES1314   0.0000
  9694 O1B     29.7214  22.1448  32.5181   O.3      1315 RES1315   0.0000
  9695 O1B     11.7716  19.3482  11.7716   O.3      1316 RES1316   0.0000
  9696 O1B     11.7716  19.3482  32.5181   O.3      1317 RES1317   0.0000
  9697 O1B     11.7716  40.0947  11.7716   O.3      1318 RES1318   0.0000
  9698 O1B     11.7716  40.0947  32.5181   O.3      1319 RES1319   0.0000
  9699 O1B     32.5181  19.3482  11.7716   O.3      1320 RES1320   0.0000
  9700 O1B     32.5181  19.3482  32.5181   O.3      1321 RES1321   0.0000
  9701 O1B     32.5181  40.0947  11.7716   O.3      1322 RES1322   0.0000
  9702 O1B     32.5181  40.0947  32.5181   O.3      1323 RES1323   0.0000
  9703 O1B      8.9749   8.9749   1.3983   O.3      1324 RES1324   0.0000
  9704 O1B      8.9749   8.9749  22.1448   O.3      1325 RES1325   0.0000
  9705 O1B      8.9749  29.7214   1.3983   O.3      1326 RES1326   0.0000
  9706 O1B      8.9749  29.7214  22.1448   O.3      1327 RES1327   0.0000
  9707 O1B     29.7214   8.9749   1.3983   O.3      1328 RES1328   0.0000
  9708 O1B     29.7214   8.9749  22.1448   O.3      1329 RES1329   0.0000
  9709 O1B     29.7214  29.7214   1.3983   O.3      1330 RES1330   0.0000
  9710 O1B     29.7214  29.7214  22.1448   O.3      1331 RES1331   0.0000
  9711 O1B     11.7716  11.7716   1.3983   O.3      1332 RES1332   0.0000
  9712 O1B     11.7716  11.7716  22.1448   O.3      1333 RES1333   0.0000
  9713 O1B     11.7716  32.5181   1.3983   O.3      1334 RES1334   0.0000
  9714 O1B     11.7716  32.5181  22.1448   O.3      1335 RES1335   0.0000
  9715 O1B     32.5181  11.7716   1.3983   O.3      1336 RES1336   0.0000
  9716 O1B     32.5181  11.7716  22.1448   O.3      1337 RES1337   0.0000
  9717 O1B     32.5181  32.5181   1.3983   O.3      1338 RES1338   0.0000
  9718 O1B     32.5181  32.5181  22.1448   O.3      1339 RES1339   0.0000
  9719 O1B     11.7716   8.9749  19.3482   O.3      1340 RES1340   0.0000
  9720 O1B     11.7716   8.9749  40.0947   O.3      1341 RES1341   0.0000
  9721 O1B     11.7716  29.7214  19.3482   O.3      1342 RES1342   0.0000
  9722 O1B     11.7716  29.7214  40.0947   O.3      1343 RES1343   0.0000
  9723 O1B     32.5181   8.9749  19.3482   O.3      1344 RES1344   0.0000
  9724 O1B     32.5181   8.9749  40.0947   O.3      1345 RES1345   0.0000
  9725 O1B     32.5181  29.7214  19.3482   O.3      1346 RES1346   0.0000
  9726 O1B     32.5181  29.7214  40.0947   O.3      1347 RES1347   0.0000
  9727 O1B      8.9749  11.7716  19.3482   O.3      1348 RES1348   0.0000
  9728 O1B      8.9749  11.7716  40.0947   O.3      1349 RES1349   0.0000
  9729 O1B      8.9749  32.5181  19.3482   O.3      1350 RES1350   0.0000
  9730 O1B      8.9749  32.5181  40.0947   O.3      1351 RES1351   0.0000
  9731 O1B     29.7214  11.7716  19.3482   O.3      1352 RES1352   0.0000
  9732 O1B     29.7214  11.7716  40.0947   O.3      1353 RES1353   0.0000
  9733 O1B     29.7214  32.5181  19.3482   O.3      1354 RES1354   0.0000
  9734 O1B     29.7214  32.5181  40.0947   O.3      1355 RES1355   0.0000
  9735 O1B      8.9749   8.9749  19.3482   O.3      1356 RES1356   0.0000
  9736 O1B      8.9749   8.9749  40.0947   O.3      1357 RES1357   0.0000
  9737 O1B      8.9749  29.7214  19.3482   O.3      1358 RES1358   0.0000
  9738 O1B      8.9749  29.7214  40.0947   O.3      1359 RES1359   0.0000
  9739 O1B     29.7214   8.9749  19.3482   O.3      1360 RES1360   0.0000
  9740 O1B     29.7214   8.9749  40.0947   O.3      1361 RES1361   0.0000
  9741 O1B     29.7214  29.7214  19.3482   O.3      1362 RES1362   0.0000
  9742 O1B     29.7214  29.7214  40.0947   O.3      1363 RES1363   0.0000
  9743 O1B     11.7716  11.7716  19.3482   O.3      1364 RES1364   0.0000
  9744 O1B     11.7716  11.7716  40.0947   O.3      1365 RES1365   0.0000
  9745 O1B     11.7716  32.5181  19.3482   O.3      1366 RES1366   0.0000
  9746 O1B     11.7716  32.5181  40.0947   O.3      1367 RES1367   0.0000
  9747 O1B     32.5181  11.7716  19.3482   O.3      1368 RES1368   0.0000
  9748 O1B     32.5181  11.7716  40.0947   O.3      1369 RES1369   0.0000
  9749 O1B     32.5181  32.5181  19.3482   O.3      1370 RES1370   0.0000
  9750 O1B     32.5181  32.5181  40.0947   O.3      1371 RES1371   0.0000
  9751 O1B      8.9749  11.7716   1.3983   O.3      1372 RES1372   0.0000
  9752 O1B      8.9749  11.7716  22.1448   O.3      1373 RES1373   0.0000
  9753 O1B      8.9749  32.5181   1.3983   O.3      1374 RES1374   0.0000
  9754 O1B      8.9749  32.5181  22.1448   O.3      1375 RES1375   0.0000
  9755 O1B     29.7214  11.7716   1.3983   O.3      1376 RES1376   0.0000
  9756 O1B     29.7214  11.7716  22.1448   O.3      1377 RES1377   0.0000
  9757 O1B     29.7214  32.5181   1.3983   O.3      1378 RES1378   0.0000
  9758 O1B     29.7214  32.5181  22.1448   O.3      1379 RES1379   0.0000
  9759 O1B     11.7716   8.9749   1.3983   O.3      1380 RES1380   0.0000
  9760 O1B     11.7716   8.9749  22.1448   O.3      1381 RES1381   0.0000
  9761 O1B     11.7716  29.7214   1.3983   O.3      1382 RES1382   0.0000
  9762 O1B     11.7716  29.7214  22.1448   O.3      1383 RES1383   0.0000
  9763 O1B     32.5181   8.9749   1.3983   O.3      1384 RES1384   0.0000
  9764 O1B     32.5181   8.9749  22.1448   O.3      1385 RES1385   0.0000
  9765 O1B     32.5181  29.7214   1.3983   O.3      1386 RES1386   0.0000
  9766 O1B     32.5181  29.7214  22.1448   O.3      1387 RES1387   0.0000
  9767 O2B      1.7116   0.0000   3.9045   O.3      1388 RES1388   0.0000
  9768 O2B      1.7116   0.0000  24.6510   O.3      1389 RES1389   0.0000
  9769 O2B      1.7116  20.7465   3.9045   O.3      1390 RES1390   0.0000
  9770 O2B      1.7116  20.7465  24.6510   O.3      1391 RES1391   0.0000
  9771 O2B      1.7116  41.4930   3.9045   O.3      1392 RES1392   0.0000
  9772 O2B      1.7116  41.4930  24.6510   O.3      1393 RES1393   0.0000
  9773 O2B     22.4581   0.0000   3.9045   O.3      1394 RES1394   0.0000
  9774 O2B     22.4581   0.0000  24.6510   O.3      1395 RES1395   0.0000
  9775 O2B     22.4581  20.7465   3.9045   O.3      1396 RES1396   0.0000
  9776 O2B     22.4581  20.7465  24.6510   O.3      1397 RES1397   0.0000
  9777 O2B     22.4581  41.4930   3.9045   O.3      1398 RES1398   0.0000
  9778 O2B     22.4581  41.4930  24.6510   O.3      1399 RES1399   0.0000
  9779 O2B     19.0349   0.0000   3.9045   O.3      1400 RES1400   0.0000
  9780 O2B     19.0349   0.0000  24.6510   O.3      1401 RES1401   0.0000
  9781 O2B     19.0349  20.7465   3.9045   O.3      1402 RES1402   0.0000
  9782 O2B     19.0349  20.7465  24.6510   O.3      1403 RES1403   0.0000
  9783 O2B     19.0349  41.4930   3.9045   O.3      1404 RES1404   0.0000
  9784 O2B     19.0349  41.4930  24.6510   O.3      1405 RES1405   0.0000
  9785 O2B     39.7814   0.0000   3.9045   O.3      1406 RES1406   0.0000
  9786 O2B     39.7814   0.0000  24.6510   O.3      1407 RES1407   0.0000
  9787 O2B     39.7814  20.7465   3.9045   O.3      1408 RES1408   0.0000
  9788 O2B     39.7814  20.7465  24.6510   O.3      1409 RES1409   0.0000
  9789 O2B     39.7814  41.4930   3.9045   O.3      1410 RES1410   0.0000
  9790 O2B     39.7814  41.4930  24.6510   O.3      1411 RES1411   0.0000
  9791 O2B     19.0349   0.0000  16.8420   O.3      1412 RES1412   0.0000
  9792 O2B     19.0349   0.0000  37.5885   O.3      1413 RES1413   0.0000
  9793 O2B     19.0349  20.7465  16.8420   O.3      1414 RES1414   0.0000
  9794 O2B     19.0349  20.7465  37.5885   O.3      1415 RES1415   0.0000
  9795 O2B     19.0349  41.4930  16.8420   O.3      1416 RES1416   0.0000
  9796 O2B     19.0349  41.4930  37.5885   O.3      1417 RES1417   0.0000
  9797 O2B     39.7814   0.0000  16.8420   O.3      1418 RES1418   0.0000
  9798 O2B     39.7814   0.0000  37.5885   O.3      1419 RES1419   0.0000
  9799 O2B     39.7814  20.7465  16.8420   O.3      1420 RES1420   0.0000
  9800 O2B     39.7814  20.7465  37.5885   O.3      1421 RES1421   0.0000
  9801 O2B     39.7814  41.4930  16.8420   O.3      1422 RES1422   0.0000
  9802 O2B     39.7814  41.4930  37.5885   O.3      1423 RES1423   0.0000
  9803 O2B      1.7116   0.0000  16.8420   O.3      1424 RES1424   0.0000
  9804 O2B      1.7116   0.0000  37.5885   O.3      1425 RES1425   0.0000
  9805 O2B      1.7116  20.7465  16.8420   O.3      1426 RES1426   0.0000
  9806 O2B      1.7116  20.7465  37.5885   O.3      1427 RES1427   0.0000
  9807 O2B      1.7116  41.4930  16.8420   O.3      1428 RES1428   0.0000
  9808 O2B      1.7116  41.4930  37.5885   O.3      1429 RES1429   0.0000
  9809 O2B     22.4581   0.0000  16.8420   O.3      1430 RES1430   0.0000
  9810 O2B     22.4581   0.0000  37.5885   O.3      1431 RES1431   0.0000
  9811 O2B     22.4581  20.7465  16.8420   O.3      1432 RES1432   0.0000
  9812 O2B     22.4581  20.7465  37.5885   O.3      1433 RES1433   0.0000
  9813 O2B     22.4581  41.4930  16.8420   O.3      1434 RES1434   0.0000
  9814 O2B     22.4581  41.4930  37.5885   O.3      1435 RES1435   0.0000
  9815 O2B      3.9045   1.7116   0.0000   O.3      1436 RES1436   0.0000
  9816 O2B      3.9045   1.7116  20.7465   O.3      1437 RES1437   0.0000
  9817 O2B      3.9045   1.7116  41.4930   O.3      1438 RES1438   0.0000
  9818 O2B      3.9045  22.4581   0.0000   O.3      1439 RES1439   0.0000
  9819 O2B      3.9045  22.4581  20.7465   O.3      1440 RES1440   0.0000
  9820 O2B      3.9045  22.4581  41.4930   O.3      1441 RES1441   0.0000
  9821 O2B     24.6510   1.7116   0.0000   O.3      1442 RES1442   0.0000
  9822 O2B     24.6510   1.7116  20.7465   O.3      1443 RES1443   0.0000
  9823 O2B     24.6510   1.7116  41.4930   O.3      1444 RES1444   0.0000
  9824 O2B     24.6510  22.4581   0.0000   O.3      1445 RES1445   0.0000
  9825 O2B     24.6510  22.4581  20.7465   O.3      1446 RES1446   0.0000
  9826 O2B     24.6510  22.4581  41.4930   O.3      1447 RES1447   0.0000
  9827 O2B      3.9045  19.0349   0.0000   O.3      1448 RES1448   0.0000
  9828 O2B      3.9045  19.0349  20.7465   O.3      1449 RES1449   0.0000
  9829 O2B      3.9045  19.0349  41.4930   O.3      1450 RES1450   0.0000
  9830 O2B      3.9045  39.7814   0.0000   O.3      1451 RES1451   0.0000
  9831 O2B      3.9045  39.7814  20.7465   O.3      1452 RES1452   0.0000
  9832 O2B      3.9045  39.7814  41.4930   O.3      1453 RES1453   0.0000
  9833 O2B     24.6510  19.0349   0.0000   O.3      1454 RES1454   0.0000
  9834 O2B     24.6510  19.0349  20.7465   O.3      1455 RES1455   0.0000
  9835 O2B     24.6510  19.0349  41.4930   O.3      1456 RES1456   0.0000
  9836 O2B     24.6510  39.7814   0.0000   O.3      1457 RES1457   0.0000
  9837 O2B     24.6510  39.7814  20.7465   O.3      1458 RES1458   0.0000
  9838 O2B     24.6510  39.7814  41.4930   O.3      1459 RES1459   0.0000
  9839 O2B     16.8420  19.0349   0.0000   O.3      1460 RES1460   0.0000
  9840 O2B     16.8420  19.0349  20.7465   O.3      1461 RES1461   0.0000
  9841 O2B     16.8420  19.0349  41.4930   O.3      1462 RES1462   0.0000
  9842 O2B     16.8420  39.7814   0.0000   O.3      1463 RES1463   0.0000
  9843 O2B     16.8420  39.7814  20.7465   O.3      1464 RES1464   0.0000
  9844 O2B     16.8420  39.7814  41.4930   O.3      1465 RES1465   0.0000
  9845 O2B     37.5885  19.0349   0.0000   O.3      1466 RES1466   0.0000
  9846 O2B     37.5885  19.0349  20.7465   O.3      1467 RES1467   0.0000
  9847 O2B     37.5885  19.0349  41.4930   O.3      1468 RES1468   0.0000
  9848 O2B     37.5885  39.7814   0.0000   O.3      1469 RES1469   0.0000
  9849 O2B     37.5885  39.7814  20.7465   O.3      1470 RES1470   0.0000
  9850 O2B     37.5885  39.7814  41.4930   O.3      1471 RES1471   0.0000
  9851 O2B     16.8420   1.7116   0.0000   O.3      1472 RES1472   0.0000
  9852 O2B     16.8420   1.7116  20.7465   O.3      1473 RES1473   0.0000
  9853 O2B     16.8420   1.7116  41.4930   O.3      1474 RES1474   0.0000
  9854 O2B     16.8420  22.4581   0.0000   O.3      1475 RES1475   0.0000
  9855 O2B     16.8420  22.4581  20.7465   O.3      1476 RES1476   0.0000
  9856 O2B     16.8420  22.4581  41.4930   O.3      1477 RES1477   0.0000
  9857 O2B     37.5885   1.7116   0.0000   O.3      1478 RES1478   0.0000
  9858 O2B     37.5885   1.7116  20.7465   O.3      1479 RES1479   0.0000
  9859 O2B     37.5885   1.7116  41.4930   O.3      1480 RES1480   0.0000
  9860 O2B     37.5885  22.4581   0.0000   O.3      1481 RES1481   0.0000
  9861 O2B     37.5885  22.4581  20.7465   O.3      1482 RES1482   0.0000
  9862 O2B     37.5885  22.4581  41.4930   O.3      1483 RES1483   0.0000
  9863 O2B      0.0000   3.9045   1.7116   O.3      1484 RES1484   0.0000
  9864 O2B      0.0000   3.9045  22.4581   O.3      1485 RES1485   0.0000
  9865 O2B      0.0000  24.6510   1.7116   O.3      1486 RES1486   0.0000
  9866 O2B      0.0000  24.6510  22.4581   O.3      1487 RES1487   0.0000
  9867 O2B     20.7465   3.9045   1.7116   O.3      1488 RES1488   0.0000
  9868 O2B     20.7465   3.9045  22.4581   O.3      1489 RES1489   0.0000
  9869 O2B     20.7465  24.6510   1.7116   O.3      1490 RES1490   0.0000
  9870 O2B     20.7465  24.6510  22.4581   O.3      1491 RES1491   0.0000
  9871 O2B     41.4930   3.9045   1.7116   O.3      1492 RES1492   0.0000
  9872 O2B     41.4930   3.9045  22.4581   O.3      1493 RES1493   0.0000
  9873 O2B     41.4930  24.6510   1.7116   O.3      1494 RES1494   0.0000
  9874 O2B     41.4930  24.6510  22.4581   O.3      1495 RES1495   0.0000
  9875 O2B      0.0000   3.9045  19.0349   O.3      1496 RES1496   0.0000
  9876 O2B      0.0000   3.9045  39.7814   O.3      1497 RES1497   0.0000
  9877 O2B      0.0000  24.6510  19.0349   O.3      1498 RES1498   0.0000
  9878 O2B      0.0000  24.6510  39.7814   O.3      1499 RES1499   0.0000
  9879 O2B     20.7465   3.9045  19.0349   O.3      1500 RES1500   0.0000
  9880 O2B     20.7465   3.9045  39.7814   O.3      1501 RES1501   0.0000
  9881 O2B     20.7465  24.6510  19.0349   O.3      1502 RES1502   0.0000
  9882 O2B     20.7465  24.6510  39.7814   O.3      1503 RES1503   0.0000
  9883 O2B     41.4930   3.9045  19.0349   O.3      1504 RES1504   0.0000
  9884 O2B     41.4930   3.9045  39.7814   O.3      1505 RES1505   0.0000
  9885 O2B     41.4930  24.6510  19.0349   O.3      1506 RES1506   0.0000
  9886 O2B     41.4930  24.6510  39.7814   O.3      1507 RES1507   0.0000
  9887 O2B      0.0000  16.8420  19.0349   O.3      1508 RES1508   0.0000
  9888 O2B      0.0000  16.8420  39.7814   O.3      1509 RES1509   0.0000
  9889 O2B      0.0000  37.5885  19.0349   O.3      1510 RES1510   0.0000
  9890 O2B      0.0000  37.5885  39.7814   O.3      1511 RES1511   0.0000
  9891 O2B     20.7465  16.8420  19.0349   O.3      1512 RES1512   0.0000
  9892 O2B     20.7465  16.8420  39.7814   O.3      1513 RES1513   0.0000
  9893 O2B     20.7465  37.5885  19.0349   O.3      1514 RES1514   0.0000
  9894 O2B     20.7465  37.5885  39.7814   O.3      1515 RES1515   0.0000
  9895 O2B     41.4930  16.8420  19.0349   O.3      1516 RES1516   0.0000
  9896 O2B     41.4930  16.8420  39.7814   O.3      1517 RES1517   0.0000
  9897 O2B     41.4930  37.5885  19.0349   O.3      1518 RES1518   0.0000
  9898 O2B     41.4930  37.5885  39.7814   O.3      1519 RES1519   0.0000
  9899 O2B      0.0000  16.8420   1.7116   O.3      1520 RES1520   0.0000
  9900 O2B      0.0000  16.8420  22.4581   O.3      1521 RES1521   0.0000
  9901 O2B      0.0000  37.5885   1.7116   O.3      1522 RES1522   0.0000
  9902 O2B      0.0000  37.5885  22.4581   O.3      1523 RES1523   0.0000
  9903 O2B     20.7465  16.8420   1.7116   O.3      1524 RES1524   0.0000
  9904 O2B     20.7465  16.8420  22.4581   O.3      1525 RES1525   0.0000
  9905 O2B     20.7465  37.5885   1.7116   O.3      1526 RES1526   0.0000
  9906 O2B     20.7465  37.5885  22.4581   O.3      1527 RES1527   0.0000
  9907 O2B     41.4930  16.8420   1.7116   O.3      1528 RES1528   0.0000
  9908 O2B     41.4930  16.8420  22.4581   O.3      1529 RES1529   0.0000
  9909 O2B     41.4930  37.5885   1.7116   O.3      1530 RES1530   0.0000
  9910 O2B     41.4930  37.5885  22.4581   O.3      1531 RES1531   0.0000
  9911 O2B      0.0000   1.7116  16.8420   O.3      1532 RES1532   0.0000
  9912 O2B      0.0000   1.7116  37.5885   O.3      1533 RES1533   0.0000
  9913 O2B      0.0000  22.4581  16.8420   O.3      1534 RES1534   0.0000
  9914 O2B      0.0000  22.4581  37.5885   O.3      1535 RES1535   0.0000
  9915 O2B     20.7465   1.7116  16.8420   O.3      1536 RES1536   0.0000
  9916 O2B     20.7465   1.7116  37.5885   O.3      1537 RES1537   0.0000
  9917 O2B     20.7465  22.4581  16.8420   O.3      1538 RES1538   0.0000
  9918 O2B     20.7465  22.4581  37.5885   O.3      1539 RES1539   0.0000
  9919 O2B     41.4930   1.7116  16.8420   O.3      1540 RES1540   0.0000
  9920 O2B     41.4930   1.7116  37.5885   O.3      1541 RES1541   0.0000
  9921 O2B     41.4930  22.4581  16.8420   O.3      1542 RES1542   0.0000
  9922 O2B     41.4930  22.4581  37.5885   O.3      1543 RES1543   0.0000
  9923 O2B      0.0000  19.0349  16.8420   O.3      1544 RES1544   0.0000
  9924 O2B      0.0000  19.0349  37.5885   O.3      1545 RES1545   0.0000
  9925 O2B      0.0000  39.7814  16.8420   O.3      1546 RES1546   0.0000
  9926 O2B      0.0000  39.7814  37.5885   O.3      1547 RES1547   0.0000
  9927 O2B     20.7465  19.0349  16.8420   O.3      1548 RES1548   0.0000
  9928 O2B     20.7465  19.0349  37.5885   O.3      1549 RES1549   0.0000
  9929 O2B     20.7465  39.7814  16.8420   O.3      1550 RES1550   0.0000
  9930 O2B     20.7465  39.7814  37.5885   O.3      1551 RES1551   0.0000
  9931 O2B     41.4930  19.0349  16.8420   O.3      1552 RES1552   0.0000
  9932 O2B     41.4930  19.0349  37.5885   O.3      1553 RES1553   0.0000
  9933 O2B     41.4930  39.7814  16.8420   O.3      1554 RES1554   0.0000
  9934 O2B     41.4930  39.7814  37.5885   O.3      1555 RES1555   0.0000
  9935 O2B      0.0000  19.0349   3.9045   O.3      1556 RES1556   0.0000
  9936 O2B      0.0000  19.0349  24.6510   O.3      1557 RES1557   0.0000
  9937 O2B      0.0000  39.7814   3.9045   O.3      1558 RES1558   0.0000
  9938 O2B      0.0000  39.7814  24.6510   O.3      1559 RES1559   0.0000
  9939 O2B     20.7465  19.0349   3.9045   O.3      1560 RES1560   0.0000
  9940 O2B     20.7465  19.0349  24.6510   O.3      1561 RES1561   0.0000
  9941 O2B     20.7465  39.7814   3.9045   O.3      1562 RES1562   0.0000
  9942 O2B     20.7465  39.7814  24.6510   O.3      1563 RES1563   0.0000
  9943 O2B     41.4930  19.0349   3.9045   O.3      1564 RES1564   0.0000
  9944 O2B     41.4930  19.0349  24.6510   O.3      1565 RES1565   0.0000
  9945 O2B     41.4930  39.7814   3.9045   O.3      1566 RES1566   0.0000
  9946 O2B     41.4930  39.7814  24.6510   O.3      1567 RES1567   0.0000
  9947 O2B      0.0000   1.7116   3.9045   O.3      1568 RES1568   0.0000
  9948 O2B      0.0000   1.7116  24.6510   O.3      1569 RES1569   0.0000
  9949 O2B      0.0000  22.4581   3.9045   O.3      1570 RES1570   0.0000
  9950 O2B      0.0000  22.4581  24.6510   O.3      1571 RES1571   0.0000
  9951 O2B     20.7465   1.7116   3.9045   O.3      1572 RES1572   0.0000
  9952 O2B     20.7465   1.7116  24.6510   O.3      1573 RES1573   0.0000
  9953 O2B     20.7465  22.4581   3.9045   O.3      1574 RES1574   0.0000
  9954 O2B     20.7465  22.4581  24.6510   O.3      1575 RES1575   0.0000
  9955 O2B     41.4930   1.7116   3.9045   O.3      1576 RES1576   0.0000
  9956 O2B     41.4930   1.7116  24.6510   O.3      1577 RES1577   0.0000
  9957 O2B     41.4930  22.4581   3.9045   O.3      1578 RES1578   0.0000
  9958 O2B     41.4930  22.4581  24.6510   O.3      1579 RES1579   0.0000
  9959 O2B      1.7116   3.9045   0.0000   O.3      1580 RES1580   0.0000
  9960 O2B      1.7116   3.9045  20.7465   O.3      1581 RES1581   0.0000
  9961 O2B      1.7116   3.9045  41.4930   O.3      1582 RES1582   0.0000
  9962 O2B      1.7116  24.6510   0.0000   O.3      1583 RES1583   0.0000
  9963 O2B      1.7116  24.6510  20.7465   O.3      1584 RES1584   0.0000
  9964 O2B      1.7116  24.6510  41.4930   O.3      1585 RES1585   0.0000
  9965 O2B     22.4581   3.9045   0.0000   O.3      1586 RES1586   0.0000
  9966 O2B     22.4581   3.9045  20.7465   O.3      1587 RES1587   0.0000
  9967 O2B     22.4581   3.9045  41.4930   O.3      1588 RES1588   0.0000
  9968 O2B     22.4581  24.6510   0.0000   O.3      1589 RES1589   0.0000
  9969 O2B     22.4581  24.6510  20.7465   O.3      1590 RES1590   0.0000
  9970 O2B     22.4581  24.6510  41.4930   O.3      1591 RES1591   0.0000
  9971 O2B     19.0349   3.9045   0.0000   O.3      1592 RES1592   0.0000
  9972 O2B     19.0349   3.9045  20.7465   O.3      1593 RES1593   0.0000
  9973 O2B     19.0349   3.9045  41.4930   O.3      1594 RES1594   0.0000
  9974 O2B     19.0349  24.6510   0.0000   O.3      1595 RES1595   0.0000
  9975 O2B     19.0349  24.6510  20.7465   O.3      1596 RES1596   0.0000
  9976 O2B     19.0349  24.6510  41.4930   O.3      1597 RES1597   0.0000
  9977 O2B     39.7814   3.9045   0.0000   O.3      1598 RES1598   0.0000
  9978 O2B     39.7814   3.9045  20.7465   O.3      1599 RES1599   0.0000
  9979 O2B     39.7814   3.9045  41.4930   O.3      1600 RES1600   0.0000
  9980 O2B     39.7814  24.6510   0.0000   O.3      1601 RES1601   0.0000
  9981 O2B     39.7814  24.6510  20.7465   O.3      1602 RES1602   0.0000
  9982 O2B     39.7814  24.6510  41.4930   O.3      1603 RES1603   0.0000
  9983 O2B     19.0349  16.8420   0.0000   O.3      1604 RES1604   0.0000
  9984 O2B     19.0349  16.8420  20.7465   O.3      1605 RES1605   0.0000
  9985 O2B     19.0349  16.8420  41.4930   O.3      1606 RES1606   0.0000
  9986 O2B     19.0349  37.5885   0.0000   O.3      1607 RES1607   0.0000
  9987 O2B     19.0349  37.5885  20.7465   O.3      1608 RES1608   0.0000
  9988 O2B     19.0349  37.5885  41.4930   O.3      1609 RES1609   0.0000
  9989 O2B     39.7814  16.8420   0.0000   O.3      1610 RES1610   0.0000
  9990 O2B     39.7814  16.8420  20.7465   O.3      1611 RES1611   0.0000
  9991 O2B     39.7814  16.8420  41.4930   O.3      1612 RES1612   0.0000
  9992 O2B     39.7814  37.5885   0.0000   O.3      1613 RES1613   0.0000
  9993 O2B     39.7814  37.5885  20.7465   O.3      1614 RES1614   0.0000
  9994 O2B     39.7814  37.5885  41.4930   O.3      1615 RES1615   0.0000
  9995 O2B      1.7116  16.8420   0.0000   O.3      1616 RES1616   0.0000
  9996 O2B      1.7116  16.8420  20.7465   O.3      1617 RES1617   0.0000
  9997 O2B      1.7116  16.8420  41.4930   O.3      1618 RES1618   0.0000
  9998 O2B      1.7116  37.5885   0.0000   O.3      1619 RES1619   0.0000
  9999 O2B      1.7116  37.5885  20.7465   O.3      1620 RES1620   0.0000
 10000 O2B      1.7116  37.5885  41.4930   O.3      1621 RES1621   0.0000
 10001 O2B     22.4581  16.8420   0.0000   O.3      1622 RES1622   0.0000
 10002 O2B     22.4581  16.8420  20.7465   O.3      1623 RES1623   0.0000
 10003 O2B     22.4581  16.8420  41.4930   O.3      1624 RES1624   0.0000
 10004 O2B     22.4581  37.5885   0.0000   O.3      1625 RES1625   0.0000
 10005 O2B     22.4581  37.5885  20.7465   O.3      1626 RES1626   0.0000
 10006 O2B     22.4581  37.5885  41.4930   O.3      1627 RES1627   0.0000
 10007 O2B      3.9045   0.0000  19.0349   O.3      1628 RES1628   0.0000
 10008 O2B      3.9045   0.0000  39.7814   O.3      1629 RES1629   0.0000
 10009 O2B      3.9045  20.7465  19.0349   O.3      1630 RES1630   0.0000
 10010 O2B      3.9045  20.7465  39.7814   O.3      1631 RES1631   0.0000
 10011 O2B      3.9045  41.4930  19.0349   O.3      1632 RES1632   0.0000
 10012 O2B      3.9045  41.4930  39.7814   O.3      1633 RES1633   0.0000
 10013 O2B     24.6510   0.0000  19.0349   O.3      1634 RES1634   0.0000
 10014 O2B     24.6510   0.0000  39.7814   O.3      1635 RES1635   0.0000
 10015 O2B     24.6510  20.7465  19.0349   O.3      1636 RES1636   0.0000
 10016 O2B     24.6510  20.7465  39.7814   O.3      1637 RES1637   0.0000
 10017 O2B     24.6510  41.4930  19.0349   O.3      1638 RES1638   0.0000
 10018 O2B     24.6510  41.4930  39.7814   O.3      1639 RES1639   0.0000
 10019 O2B      3.9045   0.0000   1.7116   O.3      1640 RES1640   0.0000
 10020 O2B      3.9045   0.0000  22.4581   O.3      1641 RES1641   0.0000
 10021 O2B      3.9045  20.7465   1.7116   O.3      1642 RES1642   0.0000
 10022 O2B      3.9045  20.7465  22.4581   O.3      1643 RES1643   0.0000
 10023 O2B      3.9045  41.4930   1.7116   O.3      1644 RES1644   0.0000
 10024 O2B      3.9045  41.4930  22.4581   O.3      1645 RES1645   0.0000
 10025 O2B     24.6510   0.0000   1.7116   O.3      1646 RES1646   0.0000
 10026 O2B     24.6510   0.0000  22.4581   O.3      1647 RES1647   0.0000
 10027 O2B     24.6510  20.7465   1.7116   O.3      1648 RES1648   0.0000
 10028 O2B     24.6510  20.7465  22.4581   O.3      1649 RES1649   0.0000
 10029 O2B     24.6510  41.4930   1.7116   O.3      1650 RES1650   0.0000
 10030 O2B     24.6510  41.4930  22.4581   O.3      1651 RES1651   0.0000
 10031 O2B     16.8420   0.0000   1.7116   O.3      1652 RES1652   0.0000
 10032 O2B     16.8420   0.0000  22.4581   O.3      1653 RES1653   0.0000
 10033 O2B     16.8420  20.7465   1.7116   O.3      1654 RES1654   0.0000
 10034 O2B     16.8420  20.7465  22.4581   O.3      1655 RES1655   0.0000
 10035 O2B     16.8420  41.4930   1.7116   O.3      1656 RES1656   0.0000
 10036 O2B     16.8420  41.4930  22.4581   O.3      1657 RES1657   0.0000
 10037 O2B     37.5885   0.0000   1.7116   O.3      1658 RES1658   0.0000
 10038 O2B     37.5885   0.0000  22.4581   O.3      1659 RES1659   0.0000
 10039 O2B     37.5885  20.7465   1.7116   O.3      1660 RES1660   0.0000
 10040 O2B     37.5885  20.7465  22.4581   O.3      1661 RES1661   0.0000
 10041 O2B     37.5885  41.4930   1.7116   O.3      1662 RES1662   0.0000
 10042 O2B     37.5885  41.4930  22.4581   O.3      1663 RES1663   0.0000
 10043 O2B     16.8420   0.0000  19.0349   O.3      1664 RES1664   0.0000
 10044 O2B     16.8420   0.0000  39.7814   O.3      1665 RES1665   0.0000
 10045 O2B     16.8420  20.7465  19.0349   O.3      1666 RES1666   0.0000
 10046 O2B     16.8420  20.7465  39.7814   O.3      1667 RES1667   0.0000
 10047 O2B     16.8420  41.4930  19.0349   O.3      1668 RES1668   0.0000
 10048 O2B     16.8420  41.4930  39.7814   O.3      1669 RES1669   0.0000
 10049 O2B     37.5885   0.0000  19.0349   O.3      1670 RES1670   0.0000
 10050 O2B     37.5885   0.0000  39.7814   O.3      1671 RES1671   0.0000
 10051 O2B     37.5885  20.7465  19.0349   O.3      1672 RES1672   0.0000
 10052 O2B     37.5885  20.7465  39.7814   O.3      1673 RES1673   0.0000
 10053 O2B     37.5885  41.4930  19.0349   O.3      1674 RES1674   0.0000
 10054 O2B     37.5885  41.4930  39.7814   O.3      1675 RES1675   0.0000
 10055 O2B      1.7116  10.3733  14.2777   O.3      1676 RES1676   0.0000
 10056 O2B      1.7116  10.3733  35.0242   O.3      1677 RES1677   0.0000
 10057 O2B      1.7116  31.1198  14.2777   O.3      1678 RES1678   0.0000
 10058 O2B      1.7116  31.1198  35.0242   O.3      1679 RES1679   0.0000
 10059 O2B     22.4581  10.3733  14.2777   O.3      1680 RES1680   0.0000
 10060 O2B     22.4581  10.3733  35.0242   O.3      1681 RES1681   0.0000
 10061 O2B     22.4581  31.1198  14.2777   O.3      1682 RES1682   0.0000
 10062 O2B     22.4581  31.1198  35.0242   O.3      1683 RES1683   0.0000
 10063 O2B     19.0349  10.3733  14.2777   O.3      1684 RES1684   0.0000
 10064 O2B     19.0349  10.3733  35.0242   O.3      1685 RES1685   0.0000
 10065 O2B     19.0349  31.1198  14.2777   O.3      1686 RES1686   0.0000
 10066 O2B     19.0349  31.1198  35.0242   O.3      1687 RES1687   0.0000
 10067 O2B     39.7814  10.3733  14.2777   O.3      1688 RES1688   0.0000
 10068 O2B     39.7814  10.3733  35.0242   O.3      1689 RES1689   0.0000
 10069 O2B     39.7814  31.1198  14.2777   O.3      1690 RES1690   0.0000
 10070 O2B     39.7814  31.1198  35.0242   O.3      1691 RES1691   0.0000
 10071 O2B     19.0349  10.3733   6.4688   O.3      1692 RES1692   0.0000
 10072 O2B     19.0349  10.3733  27.2153   O.3      1693 RES1693   0.0000
 10073 O2B     19.0349  31.1198   6.4688   O.3      1694 RES1694   0.0000
 10074 O2B     19.0349  31.1198  27.2153   O.3      1695 RES1695   0.0000
 10075 O2B     39.7814  10.3733   6.4688   O.3      1696 RES1696   0.0000
 10076 O2B     39.7814  10.3733  27.2153   O.3      1697 RES1697   0.0000
 10077 O2B     39.7814  31.1198   6.4688   O.3      1698 RES1698   0.0000
 10078 O2B     39.7814  31.1198  27.2153   O.3      1699 RES1699   0.0000
 10079 O2B      1.7116  10.3733   6.4688   O.3      1700 RES1700   0.0000
 10080 O2B      1.7116  10.3733  27.2153   O.3      1701 RES1701   0.0000
 10081 O2B      1.7116  31.1198   6.4688   O.3      1702 RES1702   0.0000
 10082 O2B      1.7116  31.1198  27.2153   O.3      1703 RES1703   0.0000
 10083 O2B     22.4581  10.3733   6.4688   O.3      1704 RES1704   0.0000
 10084 O2B     22.4581  10.3733  27.2153   O.3      1705 RES1705   0.0000
 10085 O2B     22.4581  31.1198   6.4688   O.3      1706 RES1706   0.0000
 10086 O2B     22.4581  31.1198  27.2153   O.3      1707 RES1707   0.0000
 10087 O2B      3.9045  12.0848  10.3733   O.3      1708 RES1708   0.0000
 10088 O2B      3.9045  12.0848  31.1198   O.3      1709 RES1709   0.0000
 10089 O2B      3.9045  32.8313  10.3733   O.3      1710 RES1710   0.0000
 10090 O2B      3.9045  32.8313  31.1198   O.3      1711 RES1711   0.0000
 10091 O2B     24.6510  12.0848  10.3733   O.3      1712 RES1712   0.0000
 10092 O2B     24.6510  12.0848  31.1198   O.3      1713 RES1713   0.0000
 10093 O2B     24.6510  32.8313  10.3733   O.3      1714 RES1714   0.0000
 10094 O2B     24.6510  32.8313  31.1198   O.3      1715 RES1715   0.0000
 10095 O2B      3.9045   8.6617  10.3733   O.3      1716 RES1716   0.0000
 10096 O2B      3.9045   8.6617  31.1198   O.3      1717 RES1717   0.0000
 10097 O2B      3.9045  29.4082  10.3733   O.3      1718 RES1718   0.0000
 10098 O2B      3.9045  29.4082  31.1198   O.3      1719 RES1719   0.0000
 10099 O2B     24.6510   8.6617  10.3733   O.3      1720 RES1720   0.0000
 10100 O2B     24.6510   8.6617  31.1198   O.3      1721 RES1721   0.0000
 10101 O2B     24.6510  29.4082  10.3733   O.3      1722 RES1722   0.0000
 10102 O2B     24.6510  29.4082  31.1198   O.3      1723 RES1723   0.0000
 10103 O2B     16.8420   8.6617  10.3733   O.3      1724 RES1724   0.0000
 10104 O2B     16.8420   8.6617  31.1198   O.3      1725 RES1725   0.0000
 10105 O2B     16.8420  29.4082  10.3733   O.3      1726 RES1726   0.0000
 10106 O2B     16.8420  29.4082  31.1198   O.3      1727 RES1727   0.0000
 10107 O2B     37.5885   8.6617  10.3733   O.3      1728 RES1728   0.0000
 10108 O2B     37.5885   8.6617  31.1198   O.3      1729 RES1729   0.0000
 10109 O2B     37.5885  29.4082  10.3733   O.3      1730 RES1730   0.0000
 10110 O2B     37.5885  29.4082  31.1198   O.3      1731 RES1731   0.0000
 10111 O2B     16.8420  12.0848  10.3733   O.3      1732 RES1732   0.0000
 10112 O2B     16.8420  12.0848  31.1198   O.3      1733 RES1733   0.0000
 10113 O2B     16.8420  32.8313  10.3733   O.3      1734 RES1734   0.0000
 10114 O2B     16.8420  32.8313  31.1198   O.3      1735 RES1735   0.0000
 10115 O2B     37.5885  12.0848  10.3733   O.3      1736 RES1736   0.0000
 10116 O2B     37.5885  12.0848  31.1198   O.3      1737 RES1737   0.0000
 10117 O2B     37.5885  32.8313  10.3733   O.3      1738 RES1738   0.0000
 10118 O2B     37.5885  32.8313  31.1198   O.3      1739 RES1739   0.0000
 10119 O2B      0.0000  14.2777  12.0848   O.3      1740 RES1740   0.0000
 10120 O2B      0.0000  14.2777  32.8313   O.3      1741 RES1741   0.0000
 10121 O2B      0.0000  35.0242  12.0848   O.3      1742 RES1742   0.0000
 10122 O2B      0.0000  35.0242  32.8313   O.3      1743 RES1743   0.0000
 10123 O2B     20.7465  14.2777  12.0848   O.3      1744 RES1744   0.0000
 10124 O2B     20.7465  14.2777  32.8313   O.3      1745 RES1745   0.0000
 10125 O2B     20.7465  35.0242  12.0848   O.3      1746 RES1746   0.0000
 10126 O2B     20.7465  35.0242  32.8313   O.3      1747 RES1747   0.0000
 10127 O2B     41.4930  14.2777  12.0848   O.3      1748 RES1748   0.0000
 10128 O2B     41.4930  14.2777  32.8313   O.3      1749 RES1749   0.0000
 10129 O2B     41.4930  35.0242  12.0848   O.3      1750 RES1750   0.0000
 10130 O2B     41.4930  35.0242  32.8313   O.3      1751 RES1751   0.0000
 10131 O2B      0.0000  14.2777   8.6617   O.3      1752 RES1752   0.0000
 10132 O2B      0.0000  14.2777  29.4082   O.3      1753 RES1753   0.0000
 10133 O2B      0.0000  35.0242   8.6617   O.3      1754 RES1754   0.0000
 10134 O2B      0.0000  35.0242  29.4082   O.3      1755 RES1755   0.0000
 10135 O2B     20.7465  14.2777   8.6617   O.3      1756 RES1756   0.0000
 10136 O2B     20.7465  14.2777  29.4082   O.3      1757 RES1757   0.0000
 10137 O2B     20.7465  35.0242   8.6617   O.3      1758 RES1758   0.0000
 10138 O2B     20.7465  35.0242  29.4082   O.3      1759 RES1759   0.0000
 10139 O2B     41.4930  14.2777   8.6617   O.3      1760 RES1760   0.0000
 10140 O2B     41.4930  14.2777  29.4082   O.3      1761 RES1761   0.0000
 10141 O2B     41.4930  35.0242   8.6617   O.3      1762 RES1762   0.0000
 10142 O2B     41.4930  35.0242  29.4082   O.3      1763 RES1763   0.0000
 10143 O2B      0.0000   6.4688   8.6617   O.3      1764 RES1764   0.0000
 10144 O2B      0.0000   6.4688  29.4082   O.3      1765 RES1765   0.0000
 10145 O2B      0.0000  27.2153   8.6617   O.3      1766 RES1766   0.0000
 10146 O2B      0.0000  27.2153  29.4082   O.3      1767 RES1767   0.0000
 10147 O2B     20.7465   6.4688   8.6617   O.3      1768 RES1768   0.0000
 10148 O2B     20.7465   6.4688  29.4082   O.3      1769 RES1769   0.0000
 10149 O2B     20.7465  27.2153   8.6617   O.3      1770 RES1770   0.0000
 10150 O2B     20.7465  27.2153  29.4082   O.3      1771 RES1771   0.0000
 10151 O2B     41.4930   6.4688   8.6617   O.3      1772 RES1772   0.0000
 10152 O2B     41.4930   6.4688  29.4082   O.3      1773 RES1773   0.0000
 10153 O2B     41.4930  27.2153   8.6617   O.3      1774 RES1774   0.0000
 10154 O2B     41.4930  27.2153  29.4082   O.3      1775 RES1775   0.0000
 10155 O2B      0.0000   6.4688  12.0848   O.3      1776 RES1776   0.0000
 10156 O2B      0.0000   6.4688  32.8313   O.3      1777 RES1777   0.0000
 10157 O2B      0.0000  27.2153  12.0848   O.3      1778 RES1778   0.0000
 10158 O2B      0.0000  27.2153  32.8313   O.3      1779 RES1779   0.0000
 10159 O2B     20.7465   6.4688  12.0848   O.3      1780 RES1780   0.0000
 10160 O2B     20.7465   6.4688  32.8313   O.3      1781 RES1781   0.0000
 10161 O2B     20.7465  27.2153  12.0848   O.3      1782 RES1782   0.0000
 10162 O2B     20.7465  27.2153  32.8313   O.3      1783 RES1783   0.0000
 10163 O2B     41.4930   6.4688  12.0848   O.3      1784 RES1784   0.0000
 10164 O2B     41.4930   6.4688  32.8313   O.3      1785 RES1785   0.0000
 10165 O2B     41.4930  27.2153  12.0848   O.3      1786 RES1786   0.0000
 10166 O2B     41.4930  27.2153  32.8313   O.3      1787 RES1787   0.0000
 10167 O2B      0.0000  12.0848   6.4688   O.3      1788 RES1788   0.0000
 10168 O2B      0.0000  12.0848  27.2153   O.3      1789 RES1789   0.0000
 10169 O2B      0.0000  32.8313   6.4688   O.3      1790 RES1790   0.0000
 10170 O2B      0.0000  32.8313  27.2153   O.3      1791 RES1791   0.0000
 10171 O2B     20.7465  12.0848   6.4688   O.3      1792 RES1792   0.0000
 10172 O2B     20.7465  12.0848  27.2153   O.3      1793 RES1793   0.0000
 10173 O2B     20.7465  32.8313   6.4688   O.3      1794 RES1794   0.0000
 10174 O2B     20.7465  32.8313  27.2153   O.3      1795 RES1795   0.0000
 10175 O2B     41.4930  12.0848   6.4688   O.3      1796 RES1796   0.0000
 10176 O2B     41.4930  12.0848  27.2153   O.3      1797 RES1797   0.0000
 10177 O2B     41.4930  32.8313   6.4688   O.3      1798 RES1798   0.0000
 10178 O2B     41.4930  32.8313  27.2153   O.3      1799 RES1799   0.0000
 10179 O2B      0.0000   8.6617   6.4688   O.3      1800 RES1800   0.0000
 10180 O2B      0.0000   8.6617  27.2153   O.3      1801 RES1801   0.0000
 10181 O2B      0.0000  29.4082   6.4688   O.3      1802 RES1802   0.0000
 10182 O2B      0.0000  29.4082  27.2153   O.3      1803 RES1803   0.0000
 10183 O2B     20.7465   8.6617   6.4688   O.3      1804 RES1804   0.0000
 10184 O2B     20.7465   8.6617  27.2153   O.3      1805 RES1805   0.0000
 10185 O2B     20.7465  29.4082   6.4688   O.3      1806 RES1806   0.0000
 10186 O2B     20.7465  29.4082  27.2153   O.3      1807 RES1807   0.0000
 10187 O2B     41.4930   8.6617   6.4688   O.3      1808 RES1808   0.0000
 10188 O2B     41.4930   8.6617  27.2153   O.3      1809 RES1809   0.0000
 10189 O2B     41.4930  29.4082   6.4688   O.3      1810 RES1810   0.0000
 10190 O2B     41.4930  29.4082  27.2153   O.3      1811 RES1811   0.0000
 10191 O2B      0.0000   8.6617  14.2777   O.3      1812 RES1812   0.0000
 10192 O2B      0.0000   8.6617  35.0242   O.3      1813 RES1813   0.0000
 10193 O2B      0.0000  29.4082  14.2777   O.3      1814 RES1814   0.0000
 10194 O2B      0.0000  29.4082  35.0242   O.3      1815 RES1815   0.0000
 10195 O2B     20.7465   8.6617  14.2777   O.3      1816 RES1816   0.0000
 10196 O2B     20.7465   8.6617  35.0242   O.3      1817 RES1817   0.0000
 10197 O2B     20.7465  29.4082  14.2777   O.3      1818 RES1818   0.0000
 10198 O2B     20.7465  29.4082  35.0242   O.3      1819 RES1819   0.0000
 10199 O2B     41.4930   8.6617  14.2777   O.3      1820 RES1820   0.0000
 10200 O2B     41.4930   8.6617  35.0242   O.3      1821 RES1821   0.0000
 10201 O2B     41.4930  29.4082  14.2777   O.3      1822 RES1822   0.0000
 10202 O2B     41.4930  29.4082  35.0242   O.3      1823 RES1823   0.0000
 10203 O2B      0.0000  12.0848  14.2777   O.3      1824 RES1824   0.0000
 10204 O2B      0.0000  12.0848  35.0242   O.3      1825 RES1825   0.0000
 10205 O2B      0.0000  32.8313  14.2777   O.3      1826 RES1826   0.0000
 10206 O2B      0.0000  32.8313  35.0242   O.3      1827 RES1827   0.0000
 10207 O2B     20.7465  12.0848  14.2777   O.3      1828 RES1828   0.0000
 10208 O2B     20.7465  12.0848  35.0242   O.3      1829 RES1829   0.0000
 10209 O2B     20.7465  32.8313  14.2777   O.3      1830 RES1830   0.0000
 10210 O2B     20.7465  32.8313  35.0242   O.3      1831 RES1831   0.0000
 10211 O2B     41.4930  12.0848  14.2777   O.3      1832 RES1832   0.0000
 10212 O2B     41.4930  12.0848  35.0242   O.3      1833 RES1833   0.0000
 10213 O2B     41.4930  32.8313  14.2777   O.3      1834 RES1834   0.0000
 10214 O2B     41.4930  32.8313  35.0242   O.3      1835 RES1835   0.0000
 10215 O2B      1.7116  14.2777  10.3733   O.3      1836 RES1836   0.0000
 10216 O2B      1.7116  14.2777  31.1198   O.3      1837 RES1837   0.0000
 10217 O2B      1.7116  35.0242  10.3733   O.3      1838 RES1838   0.0000
 10218 O2B      1.7116  35.0242  31.1198   O.3      1839 RES1839   0.0000
 10219 O2B     22.4581  14.2777  10.3733   O.3      1840 RES1840   0.0000
 10220 O2B     22.4581  14.2777  31.1198   O.3      1841 RES1841   0.0000
 10221 O2B     22.4581  35.0242  10.3733   O.3      1842 RES1842   0.0000
 10222 O2B     22.4581  35.0242  31.1198   O.3      1843 RES1843   0.0000
 10223 O2B     19.0349  14.2777  10.3733   O.3      1844 RES1844   0.0000
 10224 O2B     19.0349  14.2777  31.1198   O.3      1845 RES1845   0.0000
 10225 O2B     19.0349  35.0242  10.3733   O.3      1846 RES1846   0.0000
 10226 O2B     19.0349  35.0242  31.1198   O.3      1847 RES1847   0.0000
 10227 O2B     39.7814  14.2777  10.3733   O.3      1848 RES1848   0.0000
 10228 O2B     39.7814  14.2777  31.1198   O.3      1849 RES1849   0.0000
 10229 O2B     39.7814  35.0242  10.3733   O.3      1850 RES1850   0.0000
 10230 O2B     39.7814  35.0242  31.1198   O.3      1851 RES1851   0.0000
 10231 O2B     19.0349   6.4688  10.3733   O.3      1852 RES1852   0.0000
 10232 O2B     19.0349   6.4688  31.1198   O.3      1853 RES1853   0.0000
 10233 O2B     19.0349  27.2153  10.3733   O.3      1854 RES1854   0.0000
 10234 O2B     19.0349  27.2153  31.1198   O.3      1855 RES1855   0.0000
 10235 O2B     39.7814   6.4688  10.3733   O.3      1856 RES1856   0.0000
 10236 O2B     39.7814   6.4688  31.1198   O.3      1857 RES1857   0.0000
 10237 O2B     39.7814  27.2153  10.3733   O.3      1858 RES1858   0.0000
 10238 O2B     39.7814  27.2153  31.1198   O.3      1859 RES1859   0.0000
 10239 O2B      1.7116   6.4688  10.3733   O.3      1860 RES1860   0.0000
 10240 O2B      1.7116   6.4688  31.1198   O.3      1861 RES1861   0.0000
 10241 O2B      1.7116  27.2153  10.3733   O.3      1862 RES1862   0.0000
 10242 O2B      1.7116  27.2153  31.1198   O.3      1863 RES1863   0.0000
 10243 O2B     22.4581   6.4688  10.3733   O.3      1864 RES1864   0.0000
 10244 O2B     22.4581   6.4688  31.1198   O.3      1865 RES1865   0.0000
 10245 O2B     22.4581  27.2153  10.3733   O.3      1866 RES1866   0.0000
 10246 O2B     22.4581  27.2153  31.1198   O.3      1867 RES1867   0.0000
 10247 O2B      3.9045  10.3733   8.6617   O.3      1868 RES1868   0.0000
 10248 O2B      3.9045  10.3733  29.4082   O.3      1869 RES1869   0.0000
 10249 O2B      3.9045  31.1198   8.6617   O.3      1870 RES1870   0.0000
 10250 O2B      3.9045  31.1198  29.4082   O.3      1871 RES1871   0.0000
 10251 O2B     24.6510  10.3733   8.6617   O.3      1872 RES1872   0.0000
 10252 O2B     24.6510  10.3733  29.4082   O.3      1873 RES1873   0.0000
 10253 O2B     24.6510  31.1198   8.6617   O.3      1874 RES1874   0.0000
 10254 O2B     24.6510  31.1198  29.4082   O.3      1875 RES1875   0.0000
 10255 O2B      3.9045  10.3733  12.0848   O.3      1876 RES1876   0.0000
 10256 O2B      3.9045  10.3733  32.8313   O.3      1877 RES1877   0.0000
 10257 O2B      3.9045  31.1198  12.0848   O.3      1878 RES1878   0.0000
 10258 O2B      3.9045  31.1198  32.8313   O.3      1879 RES1879   0.0000
 10259 O2B     24.6510  10.3733  12.0848   O.3      1880 RES1880   0.0000
 10260 O2B     24.6510  10.3733  32.8313   O.3      1881 RES1881   0.0000
 10261 O2B     24.6510  31.1198  12.0848   O.3      1882 RES1882   0.0000
 10262 O2B     24.6510  31.1198  32.8313   O.3      1883 RES1883   0.0000
 10263 O2B     16.8420  10.3733  12.0848   O.3      1884 RES1884   0.0000
 10264 O2B     16.8420  10.3733  32.8313   O.3      1885 RES1885   0.0000
 10265 O2B     16.8420  31.1198  12.0848   O.3      1886 RES1886   0.0000
 10266 O2B     16.8420  31.1198  32.8313   O.3      1887 RES1887   0.0000
 10267 O2B     37.5885  10.3733  12.0848   O.3      1888 RES1888   0.0000
 10268 O2B     37.5885  10.3733  32.8313   O.3      1889 RES1889   0.0000
 10269 O2B     37.5885  31.1198  12.0848   O.3      1890 RES1890   0.0000
 10270 O2B     37.5885  31.1198  32.8313   O.3      1891 RES1891   0.0000
 10271 O2B     16.8420  10.3733   8.6617   O.3      1892 RES1892   0.0000
 10272 O2B     16.8420  10.3733  29.4082   O.3      1893 RES1893   0.0000
 10273 O2B     16.8420  31.1198   8.6617   O.3      1894 RES1894   0.0000
 10274 O2B     16.8420  31.1198  29.4082   O.3      1895 RES1895   0.0000
 10275 O2B     37.5885  10.3733   8.6617   O.3      1896 RES1896   0.0000
 10276 O2B     37.5885  10.3733  29.4082   O.3      1897 RES1897   0.0000
 10277 O2B     37.5885  31.1198   8.6617   O.3      1898 RES1898   0.0000
 10278 O2B     37.5885  31.1198  29.4082   O.3      1899 RES1899   0.0000
 10279 O2B     12.0848   0.0000  14.2777   O.3      1900 RES1900   0.0000
 10280 O2B     12.0848   0.0000  35.0242   O.3      1901 RES1901   0.0000
 10281 O2B     12.0848  20.7465  14.2777   O.3      1902 RES1902   0.0000
 10282 O2B     12.0848  20.7465  35.0242   O.3      1903 RES1903   0.0000
 10283 O2B     12.0848  41.4930  14.2777   O.3      1904 RES1904   0.0000
 10284 O2B     12.0848  41.4930  35.0242   O.3      1905 RES1905   0.0000
 10285 O2B     32.8313   0.0000  14.2777   O.3      1906 RES1906   0.0000
 10286 O2B     32.8313   0.0000  35.0242   O.3      1907 RES1907   0.0000
 10287 O2B     32.8313  20.7465  14.2777   O.3      1908 RES1908   0.0000
 10288 O2B     32.8313  20.7465  35.0242   O.3      1909 RES1909   0.0000
 10289 O2B     32.8313  41.4930  14.2777   O.3      1910 RES1910   0.0000
 10290 O2B     32.8313  41.4930  35.0242   O.3      1911 RES1911   0.0000
 10291 O2B      8.6617   0.0000  14.2777   O.3      1912 RES1912   0.0000
 10292 O2B      8.6617   0.0000  35.0242   O.3      1913 RES1913   0.0000
 10293 O2B      8.6617  20.7465  14.2777   O.3      1914 RES1914   0.0000
 10294 O2B      8.6617  20.7465  35.0242   O.3      1915 RES1915   0.0000
 10295 O2B      8.6617  41.4930  14.2777   O.3      1916 RES1916   0.0000
 10296 O2B      8.6617  41.4930  35.0242   O.3      1917 RES1917   0.0000
 10297 O2B     29.4082   0.0000  14.2777   O.3      1918 RES1918   0.0000
 10298 O2B     29.4082   0.0000  35.0242   O.3      1919 RES1919   0.0000
 10299 O2B     29.4082  20.7465  14.2777   O.3      1920 RES1920   0.0000
 10300 O2B     29.4082  20.7465  35.0242   O.3      1921 RES1921   0.0000
 10301 O2B     29.4082  41.4930  14.2777   O.3      1922 RES1922   0.0000
 10302 O2B     29.4082  41.4930  35.0242   O.3      1923 RES1923   0.0000
 10303 O2B      8.6617   0.0000   6.4688   O.3      1924 RES1924   0.0000
 10304 O2B      8.6617   0.0000  27.2153   O.3      1925 RES1925   0.0000
 10305 O2B      8.6617  20.7465   6.4688   O.3      1926 RES1926   0.0000
 10306 O2B      8.6617  20.7465  27.2153   O.3      1927 RES1927   0.0000
 10307 O2B      8.6617  41.4930   6.4688   O.3      1928 RES1928   0.0000
 10308 O2B      8.6617  41.4930  27.2153   O.3      1929 RES1929   0.0000
 10309 O2B     29.4082   0.0000   6.4688   O.3      1930 RES1930   0.0000
 10310 O2B     29.4082   0.0000  27.2153   O.3      1931 RES1931   0.0000
 10311 O2B     29.4082  20.7465   6.4688   O.3      1932 RES1932   0.0000
 10312 O2B     29.4082  20.7465  27.2153   O.3      1933 RES1933   0.0000
 10313 O2B     29.4082  41.4930   6.4688   O.3      1934 RES1934   0.0000
 10314 O2B     29.4082  41.4930  27.2153   O.3      1935 RES1935   0.0000
 10315 O2B     12.0848   0.0000   6.4688   O.3      1936 RES1936   0.0000
 10316 O2B     12.0848   0.0000  27.2153   O.3      1937 RES1937   0.0000
 10317 O2B     12.0848  20.7465   6.4688   O.3      1938 RES1938   0.0000
 10318 O2B     12.0848  20.7465  27.2153   O.3      1939 RES1939   0.0000
 10319 O2B     12.0848  41.4930   6.4688   O.3      1940 RES1940   0.0000
 10320 O2B     12.0848  41.4930  27.2153   O.3      1941 RES1941   0.0000
 10321 O2B     32.8313   0.0000   6.4688   O.3      1942 RES1942   0.0000
 10322 O2B     32.8313   0.0000  27.2153   O.3      1943 RES1943   0.0000
 10323 O2B     32.8313  20.7465   6.4688   O.3      1944 RES1944   0.0000
 10324 O2B     32.8313  20.7465  27.2153   O.3      1945 RES1945   0.0000
 10325 O2B     32.8313  41.4930   6.4688   O.3      1946 RES1946   0.0000
 10326 O2B     32.8313  41.4930  27.2153   O.3      1947 RES1947   0.0000
 10327 O2B     14.2777   1.7116  10.3733   O.3      1948 RES1948   0.0000
 10328 O2B     14.2777   1.7116  31.1198   O.3      1949 RES1949   0.0000
 10329 O2B     14.2777  22.4581  10.3733   O.3      1950 RES1950   0.0000
 10330 O2B     14.2777  22.4581  31.1198   O.3      1951 RES1951   0.0000
 10331 O2B     35.0242   1.7116  10.3733   O.3      1952 RES1952   0.0000
 10332 O2B     35.0242   1.7116  31.1198   O.3      1953 RES1953   0.0000
 10333 O2B     35.0242  22.4581  10.3733   O.3      1954 RES1954   0.0000
 10334 O2B     35.0242  22.4581  31.1198   O.3      1955 RES1955   0.0000
 10335 O2B     14.2777  19.0349  10.3733   O.3      1956 RES1956   0.0000
 10336 O2B     14.2777  19.0349  31.1198   O.3      1957 RES1957   0.0000
 10337 O2B     14.2777  39.7814  10.3733   O.3      1958 RES1958   0.0000
 10338 O2B     14.2777  39.7814  31.1198   O.3      1959 RES1959   0.0000
 10339 O2B     35.0242  19.0349  10.3733   O.3      1960 RES1960   0.0000
 10340 O2B     35.0242  19.0349  31.1198   O.3      1961 RES1961   0.0000
 10341 O2B     35.0242  39.7814  10.3733   O.3      1962 RES1962   0.0000
 10342 O2B     35.0242  39.7814  31.1198   O.3      1963 RES1963   0.0000
 10343 O2B      6.4688  19.0349  10.3733   O.3      1964 RES1964   0.0000
 10344 O2B      6.4688  19.0349  31.1198   O.3      1965 RES1965   0.0000
 10345 O2B      6.4688  39.7814  10.3733   O.3      1966 RES1966   0.0000
 10346 O2B      6.4688  39.7814  31.1198   O.3      1967 RES1967   0.0000
 10347 O2B     27.2153  19.0349  10.3733   O.3      1968 RES1968   0.0000
 10348 O2B     27.2153  19.0349  31.1198   O.3      1969 RES1969   0.0000
 10349 O2B     27.2153  39.7814  10.3733   O.3      1970 RES1970   0.0000
 10350 O2B     27.2153  39.7814  31.1198   O.3      1971 RES1971   0.0000
 10351 O2B      6.4688   1.7116  10.3733   O.3      1972 RES1972   0.0000
 10352 O2B      6.4688   1.7116  31.1198   O.3      1973 RES1973   0.0000
 10353 O2B      6.4688  22.4581  10.3733   O.3      1974 RES1974   0.0000
 10354 O2B      6.4688  22.4581  31.1198   O.3      1975 RES1975   0.0000
 10355 O2B     27.2153   1.7116  10.3733   O.3      1976 RES1976   0.0000
 10356 O2B     27.2153   1.7116  31.1198   O.3      1977 RES1977   0.0000
 10357 O2B     27.2153  22.4581  10.3733   O.3      1978 RES1978   0.0000
 10358 O2B     27.2153  22.4581  31.1198   O.3      1979 RES1979   0.0000
 10359 O2B     10.3733   3.9045  12.0848   O.3      1980 RES1980   0.0000
 10360 O2B     10.3733   3.9045  32.8313   O.3      1981 RES1981   0.0000
 10361 O2B     10.3733  24.6510  12.0848   O.3      1982 RES1982   0.0000
 10362 O2B     10.3733  24.6510  32.8313   O.3      1983 RES1983   0.0000
 10363 O2B     31.1198   3.9045  12.0848   O.3      1984 RES1984   0.0000
 10364 O2B     31.1198   3.9045  32.8313   O.3      1985 RES1985   0.0000
 10365 O2B     31.1198  24.6510  12.0848   O.3      1986 RES1986   0.0000
 10366 O2B     31.1198  24.6510  32.8313   O.3      1987 RES1987   0.0000
 10367 O2B     10.3733   3.9045   8.6617   O.3      1988 RES1988   0.0000
 10368 O2B     10.3733   3.9045  29.4082   O.3      1989 RES1989   0.0000
 10369 O2B     10.3733  24.6510   8.6617   O.3      1990 RES1990   0.0000
 10370 O2B     10.3733  24.6510  29.4082   O.3      1991 RES1991   0.0000
 10371 O2B     31.1198   3.9045   8.6617   O.3      1992 RES1992   0.0000
 10372 O2B     31.1198   3.9045  29.4082   O.3      1993 RES1993   0.0000
 10373 O2B     31.1198  24.6510   8.6617   O.3      1994 RES1994   0.0000
 10374 O2B     31.1198  24.6510  29.4082   O.3      1995 RES1995   0.0000
 10375 O2B     10.3733  16.8420   8.6617   O.3      1996 RES1996   0.0000
 10376 O2B     10.3733  16.8420  29.4082   O.3      1997 RES1997   0.0000
 10377 O2B     10.3733  37.5885   8.6617   O.3      1998 RES1998   0.0000
 10378 O2B     10.3733  37.5885  29.4082   O.3      1999 RES1999   0.0000
 10379 O2B     31.1198  16.8420   8.6617   O.3      2000 RES2000   0.0000
 10380 O2B     31.1198  16.8420  29.4082   O.3      2001 RES2001   0.0000
 10381 O2B     31.1198  37.5885   8.6617   O.3      2002 RES2002   0.0000
 10382 O2B     31.1198  37.5885  29.4082   O.3      2003 RES2003   0.0000
 10383 O2B     10.3733  16.8420  12.0848   O.3      2004 RES2004   0.0000
 10384 O2B     10.3733  16.8420  32.8313   O.3      2005 RES2005   0.0000
 10385 O2B     10.3733  37.5885  12.0848   O.3      2006 RES2006   0.0000
 10386 O2B     10.3733  37.5885  32.8313   O.3      2007 RES2007   0.0000
 10387 O2B     31.1198  16.8420  12.0848   O.3      2008 RES2008   0.0000
 10388 O2B     31.1198  16.8420  32.8313   O.3      2009 RES2009   0.0000
 10389 O2B     31.1198  37.5885  12.0848   O.3      2010 RES2010   0.0000
 10390 O2B     31.1198  37.5885  32.8313   O.3      2011 RES2011   0.0000
 10391 O2B     10.3733   1.7116   6.4688   O.3      2012 RES2012   0.0000
 10392 O2B     10.3733   1.7116  27.2153   O.3      2013 RES2013   0.0000
 10393 O2B     10.3733  22.4581   6.4688   O.3      2014 RES2014   0.0000
 10394 O2B     10.3733  22.4581  27.2153   O.3      2015 RES2015   0.0000
 10395 O2B     31.1198   1.7116   6.4688   O.3      2016 RES2016   0.0000
 10396 O2B     31.1198   1.7116  27.2153   O.3      2017 RES2017   0.0000
 10397 O2B     31.1198  22.4581   6.4688   O.3      2018 RES2018   0.0000
 10398 O2B     31.1198  22.4581  27.2153   O.3      2019 RES2019   0.0000
 10399 O2B     10.3733  19.0349   6.4688   O.3      2020 RES2020   0.0000
 10400 O2B     10.3733  19.0349  27.2153   O.3      2021 RES2021   0.0000
 10401 O2B     10.3733  39.7814   6.4688   O.3      2022 RES2022   0.0000
 10402 O2B     10.3733  39.7814  27.2153   O.3      2023 RES2023   0.0000
 10403 O2B     31.1198  19.0349   6.4688   O.3      2024 RES2024   0.0000
 10404 O2B     31.1198  19.0349  27.2153   O.3      2025 RES2025   0.0000
 10405 O2B     31.1198  39.7814   6.4688   O.3      2026 RES2026   0.0000
 10406 O2B     31.1198  39.7814  27.2153   O.3      2027 RES2027   0.0000
 10407 O2B     10.3733  19.0349  14.2777   O.3      2028 RES2028   0.0000
 10408 O2B     10.3733  19.0349  35.0242   O.3      2029 RES2029   0.0000
 10409 O2B     10.3733  39.7814  14.2777   O.3      2030 RES2030   0.0000
 10410 O2B     10.3733  39.7814  35.0242   O.3      2031 RES2031   0.0000
 10411 O2B     31.1198  19.0349  14.2777   O.3      2032 RES2032   0.0000
 10412 O2B     31.1198  19.0349  35.0242   O.3      2033 RES2033   0.0000
 10413 O2B     31.1198  39.7814  14.2777   O.3      2034 RES2034   0.0000
 10414 O2B     31.1198  39.7814  35.0242   O.3      2035 RES2035   0.0000
 10415 O2B     10.3733   1.7116  14.2777   O.3      2036 RES2036   0.0000
 10416 O2B     10.3733   1.7116  35.0242   O.3      2037 RES2037   0.0000
 10417 O2B     10.3733  22.4581  14.2777   O.3      2038 RES2038   0.0000
 10418 O2B     10.3733  22.4581  35.0242   O.3      2039 RES2039   0.0000
 10419 O2B     31.1198   1.7116  14.2777   O.3      2040 RES2040   0.0000
 10420 O2B     31.1198   1.7116  35.0242   O.3      2041 RES2041   0.0000
 10421 O2B     31.1198  22.4581  14.2777   O.3      2042 RES2042   0.0000
 10422 O2B     31.1198  22.4581  35.0242   O.3      2043 RES2043   0.0000
 10423 O2B     12.0848   3.9045  10.3733   O.3      2044 RES2044   0.0000
 10424 O2B     12.0848   3.9045  31.1198   O.3      2045 RES2045   0.0000
 10425 O2B     12.0848  24.6510  10.3733   O.3      2046 RES2046   0.0000
 10426 O2B     12.0848  24.6510  31.1198   O.3      2047 RES2047   0.0000
 10427 O2B     32.8313   3.9045  10.3733   O.3      2048 RES2048   0.0000
 10428 O2B     32.8313   3.9045  31.1198   O.3      2049 RES2049   0.0000
 10429 O2B     32.8313  24.6510  10.3733   O.3      2050 RES2050   0.0000
 10430 O2B     32.8313  24.6510  31.1198   O.3      2051 RES2051   0.0000
 10431 O2B      8.6617   3.9045  10.3733   O.3      2052 RES2052   0.0000
 10432 O2B      8.6617   3.9045  31.1198   O.3      2053 RES2053   0.0000
 10433 O2B      8.6617  24.6510  10.3733   O.3      2054 RES2054   0.0000
 10434 O2B      8.6617  24.6510  31.1198   O.3      2055 RES2055   0.0000
 10435 O2B     29.4082   3.9045  10.3733   O.3      2056 RES2056   0.0000
 10436 O2B     29.4082   3.9045  31.1198   O.3      2057 RES2057   0.0000
 10437 O2B     29.4082  24.6510  10.3733   O.3      2058 RES2058   0.0000
 10438 O2B     29.4082  24.6510  31.1198   O.3      2059 RES2059   0.0000
 10439 O2B      8.6617  16.8420  10.3733   O.3      2060 RES2060   0.0000
 10440 O2B      8.6617  16.8420  31.1198   O.3      2061 RES2061   0.0000
 10441 O2B      8.6617  37.5885  10.3733   O.3      2062 RES2062   0.0000
 10442 O2B      8.6617  37.5885  31.1198   O.3      2063 RES2063   0.0000
 10443 O2B     29.4082  16.8420  10.3733   O.3      2064 RES2064   0.0000
 10444 O2B     29.4082  16.8420  31.1198   O.3      2065 RES2065   0.0000
 10445 O2B     29.4082  37.5885  10.3733   O.3      2066 RES2066   0.0000
 10446 O2B     29.4082  37.5885  31.1198   O.3      2067 RES2067   0.0000
 10447 O2B     12.0848  16.8420  10.3733   O.3      2068 RES2068   0.0000
 10448 O2B     12.0848  16.8420  31.1198   O.3      2069 RES2069   0.0000
 10449 O2B     12.0848  37.5885  10.3733   O.3      2070 RES2070   0.0000
 10450 O2B     12.0848  37.5885  31.1198   O.3      2071 RES2071   0.0000
 10451 O2B     32.8313  16.8420  10.3733   O.3      2072 RES2072   0.0000
 10452 O2B     32.8313  16.8420  31.1198   O.3      2073 RES2073   0.0000
 10453 O2B     32.8313  37.5885  10.3733   O.3      2074 RES2074   0.0000
 10454 O2B     32.8313  37.5885  31.1198   O.3      2075 RES2075   0.0000
 10455 O2B     14.2777   0.0000   8.6617   O.3      2076 RES2076   0.0000
 10456 O2B     14.2777   0.0000  29.4082   O.3      2077 RES2077   0.0000
 10457 O2B     14.2777  20.7465   8.6617   O.3      2078 RES2078   0.0000
 10458 O2B     14.2777  20.7465  29.4082   O.3      2079 RES2079   0.0000
 10459 O2B     14.2777  41.4930   8.6617   O.3      2080 RES2080   0.0000
 10460 O2B     14.2777  41.4930  29.4082   O.3      2081 RES2081   0.0000
 10461 O2B     35.0242   0.0000   8.6617   O.3      2082 RES2082   0.0000
 10462 O2B     35.0242   0.0000  29.4082   O.3      2083 RES2083   0.0000
 10463 O2B     35.0242  20.7465   8.6617   O.3      2084 RES2084   0.0000
 10464 O2B     35.0242  20.7465  29.4082   O.3      2085 RES2085   0.0000
 10465 O2B     35.0242  41.4930   8.6617   O.3      2086 RES2086   0.0000
 10466 O2B     35.0242  41.4930  29.4082   O.3      2087 RES2087   0.0000
 10467 O2B     14.2777   0.0000  12.0848   O.3      2088 RES2088   0.0000
 10468 O2B     14.2777   0.0000  32.8313   O.3      2089 RES2089   0.0000
 10469 O2B     14.2777  20.7465  12.0848   O.3      2090 RES2090   0.0000
 10470 O2B     14.2777  20.7465  32.8313   O.3      2091 RES2091   0.0000
 10471 O2B     14.2777  41.4930  12.0848   O.3      2092 RES2092   0.0000
 10472 O2B     14.2777  41.4930  32.8313   O.3      2093 RES2093   0.0000
 10473 O2B     35.0242   0.0000  12.0848   O.3      2094 RES2094   0.0000
 10474 O2B     35.0242   0.0000  32.8313   O.3      2095 RES2095   0.0000
 10475 O2B     35.0242  20.7465  12.0848   O.3      2096 RES2096   0.0000
 10476 O2B     35.0242  20.7465  32.8313   O.3      2097 RES2097   0.0000
 10477 O2B     35.0242  41.4930  12.0848   O.3      2098 RES2098   0.0000
 10478 O2B     35.0242  41.4930  32.8313   O.3      2099 RES2099   0.0000
 10479 O2B      6.4688   0.0000  12.0848   O.3      2100 RES2100   0.0000
 10480 O2B      6.4688   0.0000  32.8313   O.3      2101 RES2101   0.0000
 10481 O2B      6.4688  20.7465  12.0848   O.3      2102 RES2102   0.0000
 10482 O2B      6.4688  20.7465  32.8313   O.3      2103 RES2103   0.0000
 10483 O2B      6.4688  41.4930  12.0848   O.3      2104 RES2104   0.0000
 10484 O2B      6.4688  41.4930  32.8313   O.3      2105 RES2105   0.0000
 10485 O2B     27.2153   0.0000  12.0848   O.3      2106 RES2106   0.0000
 10486 O2B     27.2153   0.0000  32.8313   O.3      2107 RES2107   0.0000
 10487 O2B     27.2153  20.7465  12.0848   O.3      2108 RES2108   0.0000
 10488 O2B     27.2153  20.7465  32.8313   O.3      2109 RES2109   0.0000
 10489 O2B     27.2153  41.4930  12.0848   O.3      2110 RES2110   0.0000
 10490 O2B     27.2153  41.4930  32.8313   O.3      2111 RES2111   0.0000
 10491 O2B      6.4688   0.0000   8.6617   O.3      2112 RES2112   0.0000
 10492 O2B      6.4688   0.0000  29.4082   O.3      2113 RES2113   0.0000
 10493 O2B      6.4688  20.7465   8.6617   O.3      2114 RES2114   0.0000
 10494 O2B      6.4688  20.7465  29.4082   O.3      2115 RES2115   0.0000
 10495 O2B      6.4688  41.4930   8.6617   O.3      2116 RES2116   0.0000
 10496 O2B      6.4688  41.4930  29.4082   O.3      2117 RES2117   0.0000
 10497 O2B     27.2153   0.0000   8.6617   O.3      2118 RES2118   0.0000
 10498 O2B     27.2153   0.0000  29.4082   O.3      2119 RES2119   0.0000
 10499 O2B     27.2153  20.7465   8.6617   O.3      2120 RES2120   0.0000
 10500 O2B     27.2153  20.7465  29.4082   O.3      2121 RES2121   0.0000
 10501 O2B     27.2153  41.4930   8.6617   O.3      2122 RES2122   0.0000
 10502 O2B     27.2153  41.4930  29.4082   O.3      2123 RES2123   0.0000
 10503 O2B     12.0848  10.3733   3.9045   O.3      2124 RES2124   0.0000
 10504 O2B     12.0848  10.3733  24.6510   O.3      2125 RES2125   0.0000
 10505 O2B     12.0848  31.1198   3.9045   O.3      2126 RES2126   0.0000
 10506 O2B     12.0848  31.1198  24.6510   O.3      2127 RES2127   0.0000
 10507 O2B     32.8313  10.3733   3.9045   O.3      2128 RES2128   0.0000
 10508 O2B     32.8313  10.3733  24.6510   O.3      2129 RES2129   0.0000
 10509 O2B     32.8313  31.1198   3.9045   O.3      2130 RES2130   0.0000
 10510 O2B     32.8313  31.1198  24.6510   O.3      2131 RES2131   0.0000
 10511 O2B      8.6617  10.3733   3.9045   O.3      2132 RES2132   0.0000
 10512 O2B      8.6617  10.3733  24.6510   O.3      2133 RES2133   0.0000
 10513 O2B      8.6617  31.1198   3.9045   O.3      2134 RES2134   0.0000
 10514 O2B      8.6617  31.1198  24.6510   O.3      2135 RES2135   0.0000
 10515 O2B     29.4082  10.3733   3.9045   O.3      2136 RES2136   0.0000
 10516 O2B     29.4082  10.3733  24.6510   O.3      2137 RES2137   0.0000
 10517 O2B     29.4082  31.1198   3.9045   O.3      2138 RES2138   0.0000
 10518 O2B     29.4082  31.1198  24.6510   O.3      2139 RES2139   0.0000
 10519 O2B      8.6617  10.3733  16.8420   O.3      2140 RES2140   0.0000
 10520 O2B      8.6617  10.3733  37.5885   O.3      2141 RES2141   0.0000
 10521 O2B      8.6617  31.1198  16.8420   O.3      2142 RES2142   0.0000
 10522 O2B      8.6617  31.1198  37.5885   O.3      2143 RES2143   0.0000
 10523 O2B     29.4082  10.3733  16.8420   O.3      2144 RES2144   0.0000
 10524 O2B     29.4082  10.3733  37.5885   O.3      2145 RES2145   0.0000
 10525 O2B     29.4082  31.1198  16.8420   O.3      2146 RES2146   0.0000
 10526 O2B     29.4082  31.1198  37.5885   O.3      2147 RES2147   0.0000
 10527 O2B     12.0848  10.3733  16.8420   O.3      2148 RES2148   0.0000
 10528 O2B     12.0848  10.3733  37.5885   O.3      2149 RES2149   0.0000
 10529 O2B     12.0848  31.1198  16.8420   O.3      2150 RES2150   0.0000
 10530 O2B     12.0848  31.1198  37.5885   O.3      2151 RES2151   0.0000
 10531 O2B     32.8313  10.3733  16.8420   O.3      2152 RES2152   0.0000
 10532 O2B     32.8313  10.3733  37.5885   O.3      2153 RES2153   0.0000
 10533 O2B     32.8313  31.1198  16.8420   O.3      2154 RES2154   0.0000
 10534 O2B     32.8313  31.1198  37.5885   O.3      2155 RES2155   0.0000
 10535 O2B     14.2777  12.0848   0.0000   O.3      2156 RES2156   0.0000
 10536 O2B     14.2777  12.0848  20.7465   O.3      2157 RES2157   0.0000
 10537 O2B     14.2777  12.0848  41.4930   O.3      2158 RES2158   0.0000
 10538 O2B     14.2777  32.8313   0.0000   O.3      2159 RES2159   0.0000
 10539 O2B     14.2777  32.8313  20.7465   O.3      2160 RES2160   0.0000
 10540 O2B     14.2777  32.8313  41.4930   O.3      2161 RES2161   0.0000
 10541 O2B     35.0242  12.0848   0.0000   O.3      2162 RES2162   0.0000
 10542 O2B     35.0242  12.0848  20.7465   O.3      2163 RES2163   0.0000
 10543 O2B     35.0242  12.0848  41.4930   O.3      2164 RES2164   0.0000
 10544 O2B     35.0242  32.8313   0.0000   O.3      2165 RES2165   0.0000
 10545 O2B     35.0242  32.8313  20.7465   O.3      2166 RES2166   0.0000
 10546 O2B     35.0242  32.8313  41.4930   O.3      2167 RES2167   0.0000
 10547 O2B     14.2777   8.6617   0.0000   O.3      2168 RES2168   0.0000
 10548 O2B     14.2777   8.6617  20.7465   O.3      2169 RES2169   0.0000
 10549 O2B     14.2777   8.6617  41.4930   O.3      2170 RES2170   0.0000
 10550 O2B     14.2777  29.4082   0.0000   O.3      2171 RES2171   0.0000
 10551 O2B     14.2777  29.4082  20.7465   O.3      2172 RES2172   0.0000
 10552 O2B     14.2777  29.4082  41.4930   O.3      2173 RES2173   0.0000
 10553 O2B     35.0242   8.6617   0.0000   O.3      2174 RES2174   0.0000
 10554 O2B     35.0242   8.6617  20.7465   O.3      2175 RES2175   0.0000
 10555 O2B     35.0242   8.6617  41.4930   O.3      2176 RES2176   0.0000
 10556 O2B     35.0242  29.4082   0.0000   O.3      2177 RES2177   0.0000
 10557 O2B     35.0242  29.4082  20.7465   O.3      2178 RES2178   0.0000
 10558 O2B     35.0242  29.4082  41.4930   O.3      2179 RES2179   0.0000
 10559 O2B      6.4688   8.6617   0.0000   O.3      2180 RES2180   0.0000
 10560 O2B      6.4688   8.6617  20.7465   O.3      2181 RES2181   0.0000
 10561 O2B      6.4688   8.6617  41.4930   O.3      2182 RES2182   0.0000
 10562 O2B      6.4688  29.4082   0.0000   O.3      2183 RES2183   0.0000
 10563 O2B      6.4688  29.4082  20.7465   O.3      2184 RES2184   0.0000
 10564 O2B      6.4688  29.4082  41.4930   O.3      2185 RES2185   0.0000
 10565 O2B     27.2153   8.6617   0.0000   O.3      2186 RES2186   0.0000
 10566 O2B     27.2153   8.6617  20.7465   O.3      2187 RES2187   0.0000
 10567 O2B     27.2153   8.6617  41.4930   O.3      2188 RES2188   0.0000
 10568 O2B     27.2153  29.4082   0.0000   O.3      2189 RES2189   0.0000
 10569 O2B     27.2153  29.4082  20.7465   O.3      2190 RES2190   0.0000
 10570 O2B     27.2153  29.4082  41.4930   O.3      2191 RES2191   0.0000
 10571 O2B      6.4688  12.0848   0.0000   O.3      2192 RES2192   0.0000
 10572 O2B      6.4688  12.0848  20.7465   O.3      2193 RES2193   0.0000
 10573 O2B      6.4688  12.0848  41.4930   O.3      2194 RES2194   0.0000
 10574 O2B      6.4688  32.8313   0.0000   O.3      2195 RES2195   0.0000
 10575 O2B      6.4688  32.8313  20.7465   O.3      2196 RES2196   0.0000
 10576 O2B      6.4688  32.8313  41.4930   O.3      2197 RES2197   0.0000
 10577 O2B     27.2153  12.0848   0.0000   O.3      2198 RES2198   0.0000
 10578 O2B     27.2153  12.0848  20.7465   O.3      2199 RES2199   0.0000
 10579 O2B     27.2153  12.0848  41.4930   O.3      2200 RES2200   0.0000
 10580 O2B     27.2153  32.8313   0.0000   O.3      2201 RES2201   0.0000
 10581 O2B     27.2153  32.8313  20.7465   O.3      2202 RES2202   0.0000
 10582 O2B     27.2153  32.8313  41.4930   O.3      2203 RES2203   0.0000
 10583 O2B     10.3733  14.2777   1.7116   O.3      2204 RES2204   0.0000
 10584 O2B     10.3733  14.2777  22.4581   O.3      2205 RES2205   0.0000
 10585 O2B     10.3733  35.0242   1.7116   O.3      2206 RES2206   0.0000
 10586 O2B     10.3733  35.0242  22.4581   O.3      2207 RES2207   0.0000
 10587 O2B     31.1198  14.2777   1.7116   O.3      2208 RES2208   0.0000
 10588 O2B     31.1198  14.2777  22.4581   O.3      2209 RES2209   0.0000
 10589 O2B     31.1198  35.0242   1.7116   O.3      2210 RES2210   0.0000
 10590 O2B     31.1198  35.0242  22.4581   O.3      2211 RES2211   0.0000
 10591 O2B     10.3733  14.2777  19.0349   O.3      2212 RES2212   0.0000
 10592 O2B     10.3733  14.2777  39.7814   O.3      2213 RES2213   0.0000
 10593 O2B     10.3733  35.0242  19.0349   O.3      2214 RES2214   0.0000
 10594 O2B     10.3733  35.0242  39.7814   O.3      2215 RES2215   0.0000
 10595 O2B     31.1198  14.2777  19.0349   O.3      2216 RES2216   0.0000
 10596 O2B     31.1198  14.2777  39.7814   O.3      2217 RES2217   0.0000
 10597 O2B     31.1198  35.0242  19.0349   O.3      2218 RES2218   0.0000
 10598 O2B     31.1198  35.0242  39.7814   O.3      2219 RES2219   0.0000
 10599 O2B     10.3733   6.4688  19.0349   O.3      2220 RES2220   0.0000
 10600 O2B     10.3733   6.4688  39.7814   O.3      2221 RES2221   0.0000
 10601 O2B     10.3733  27.2153  19.0349   O.3      2222 RES2222   0.0000
 10602 O2B     10.3733  27.2153  39.7814   O.3      2223 RES2223   0.0000
 10603 O2B     31.1198   6.4688  19.0349   O.3      2224 RES2224   0.0000
 10604 O2B     31.1198   6.4688  39.7814   O.3      2225 RES2225   0.0000
 10605 O2B     31.1198  27.2153  19.0349   O.3      2226 RES2226   0.0000
 10606 O2B     31.1198  27.2153  39.7814   O.3      2227 RES2227   0.0000
 10607 O2B     10.3733   6.4688   1.7116   O.3      2228 RES2228   0.0000
 10608 O2B     10.3733   6.4688  22.4581   O.3      2229 RES2229   0.0000
 10609 O2B     10.3733  27.2153   1.7116   O.3      2230 RES2230   0.0000
 10610 O2B     10.3733  27.2153  22.4581   O.3      2231 RES2231   0.0000
 10611 O2B     31.1198   6.4688   1.7116   O.3      2232 RES2232   0.0000
 10612 O2B     31.1198   6.4688  22.4581   O.3      2233 RES2233   0.0000
 10613 O2B     31.1198  27.2153   1.7116   O.3      2234 RES2234   0.0000
 10614 O2B     31.1198  27.2153  22.4581   O.3      2235 RES2235   0.0000
 10615 O2B     10.3733  12.0848  16.8420   O.3      2236 RES2236   0.0000
 10616 O2B     10.3733  12.0848  37.5885   O.3      2237 RES2237   0.0000
 10617 O2B     10.3733  32.8313  16.8420   O.3      2238 RES2238   0.0000
 10618 O2B     10.3733  32.8313  37.5885   O.3      2239 RES2239   0.0000
 10619 O2B     31.1198  12.0848  16.8420   O.3      2240 RES2240   0.0000
 10620 O2B     31.1198  12.0848  37.5885   O.3      2241 RES2241   0.0000
 10621 O2B     31.1198  32.8313  16.8420   O.3      2242 RES2242   0.0000
 10622 O2B     31.1198  32.8313  37.5885   O.3      2243 RES2243   0.0000
 10623 O2B     10.3733   8.6617  16.8420   O.3      2244 RES2244   0.0000
 10624 O2B     10.3733   8.6617  37.5885   O.3      2245 RES2245   0.0000
 10625 O2B     10.3733  29.4082  16.8420   O.3      2246 RES2246   0.0000
 10626 O2B     10.3733  29.4082  37.5885   O.3      2247 RES2247   0.0000
 10627 O2B     31.1198   8.6617  16.8420   O.3      2248 RES2248   0.0000
 10628 O2B     31.1198   8.6617  37.5885   O.3      2249 RES2249   0.0000
 10629 O2B     31.1198  29.4082  16.8420   O.3      2250 RES2250   0.0000
 10630 O2B     31.1198  29.4082  37.5885   O.3      2251 RES2251   0.0000
 10631 O2B     10.3733   8.6617   3.9045   O.3      2252 RES2252   0.0000
 10632 O2B     10.3733   8.6617  24.6510   O.3      2253 RES2253   0.0000
 10633 O2B     10.3733  29.4082   3.9045   O.3      2254 RES2254   0.0000
 10634 O2B     10.3733  29.4082  24.6510   O.3      2255 RES2255   0.0000
 10635 O2B     31.1198   8.6617   3.9045   O.3      2256 RES2256   0.0000
 10636 O2B     31.1198   8.6617  24.6510   O.3      2257 RES2257   0.0000
 10637 O2B     31.1198  29.4082   3.9045   O.3      2258 RES2258   0.0000
 10638 O2B     31.1198  29.4082  24.6510   O.3      2259 RES2259   0.0000
 10639 O2B     10.3733  12.0848   3.9045   O.3      2260 RES2260   0.0000
 10640 O2B     10.3733  12.0848  24.6510   O.3      2261 RES2261   0.0000
 10641 O2B     10.3733  32.8313   3.9045   O.3      2262 RES2262   0.0000
 10642 O2B     10.3733  32.8313  24.6510   O.3      2263 RES2263   0.0000
 10643 O2B     31.1198  12.0848   3.9045   O.3      2264 RES2264   0.0000
 10644 O2B     31.1198  12.0848  24.6510   O.3      2265 RES2265   0.0000
 10645 O2B     31.1198  32.8313   3.9045   O.3      2266 RES2266   0.0000
 10646 O2B     31.1198  32.8313  24.6510   O.3      2267 RES2267   0.0000
 10647 O2B     12.0848  14.2777   0.0000   O.3      2268 RES2268   0.0000
 10648 O2B     12.0848  14.2777  20.7465   O.3      2269 RES2269   0.0000
 10649 O2B     12.0848  14.2777  41.4930   O.3      2270 RES2270   0.0000
 10650 O2B     12.0848  35.0242   0.0000   O.3      2271 RES2271   0.0000
 10651 O2B     12.0848  35.0242  20.7465   O.3      2272 RES2272   0.0000
 10652 O2B     12.0848  35.0242  41.4930   O.3      2273 RES2273   0.0000
 10653 O2B     32.8313  14.2777   0.0000   O.3      2274 RES2274   0.0000
 10654 O2B     32.8313  14.2777  20.7465   O.3      2275 RES2275   0.0000
 10655 O2B     32.8313  14.2777  41.4930   O.3      2276 RES2276   0.0000
 10656 O2B     32.8313  35.0242   0.0000   O.3      2277 RES2277   0.0000
 10657 O2B     32.8313  35.0242  20.7465   O.3      2278 RES2278   0.0000
 10658 O2B     32.8313  35.0242  41.4930   O.3      2279 RES2279   0.0000
 10659 O2B      8.6617  14.2777   0.0000   O.3      2280 RES2280   0.0000
 10660 O2B      8.6617  14.2777  20.7465   O.3      2281 RES2281   0.0000
 10661 O2B      8.6617  14.2777  41.4930   O.3      2282 RES2282   0.0000
 10662 O2B      8.6617  35.0242   0.0000   O.3      2283 RES2283   0.0000
 10663 O2B      8.6617  35.0242  20.7465   O.3      2284 RES2284   0.0000
 10664 O2B      8.6617  35.0242  41.4930   O.3      2285 RES2285   0.0000
 10665 O2B     29.4082  14.2777   0.0000   O.3      2286 RES2286   0.0000
 10666 O2B     29.4082  14.2777  20.7465   O.3      2287 RES2287   0.0000
 10667 O2B     29.4082  14.2777  41.4930   O.3      2288 RES2288   0.0000
 10668 O2B     29.4082  35.0242   0.0000   O.3      2289 RES2289   0.0000
 10669 O2B     29.4082  35.0242  20.7465   O.3      2290 RES2290   0.0000
 10670 O2B     29.4082  35.0242  41.4930   O.3      2291 RES2291   0.0000
 10671 O2B      8.6617   6.4688   0.0000   O.3      2292 RES2292   0.0000
 10672 O2B      8.6617   6.4688  20.7465   O.3      2293 RES2293   0.0000
 10673 O2B      8.6617   6.4688  41.4930   O.3      2294 RES2294   0.0000
 10674 O2B      8.6617  27.2153   0.0000   O.3      2295 RES2295   0.0000
 10675 O2B      8.6617  27.2153  20.7465   O.3      2296 RES2296   0.0000
 10676 O2B      8.6617  27.2153  41.4930   O.3      2297 RES2297   0.0000
 10677 O2B     29.4082   6.4688   0.0000   O.3      2298 RES2298   0.0000
 10678 O2B     29.4082   6.4688  20.7465   O.3      2299 RES2299   0.0000
 10679 O2B     29.4082   6.4688  41.4930   O.3      2300 RES2300   0.0000
 10680 O2B     29.4082  27.2153   0.0000   O.3      2301 RES2301   0.0000
 10681 O2B     29.4082  27.2153  20.7465   O.3      2302 RES2302   0.0000
 10682 O2B     29.4082  27.2153  41.4930   O.3      2303 RES2303   0.0000
 10683 O2B     12.0848   6.4688   0.0000   O.3      2304 RES2304   0.0000
 10684 O2B     12.0848   6.4688  20.7465   O.3      2305 RES2305   0.0000
 10685 O2B     12.0848   6.4688  41.4930   O.3      2306 RES2306   0.0000
 10686 O2B     12.0848  27.2153   0.0000   O.3      2307 RES2307   0.0000
 10687 O2B     12.0848  27.2153  20.7465   O.3      2308 RES2308   0.0000
 10688 O2B     12.0848  27.2153  41.4930   O.3      2309 RES2309   0.0000
 10689 O2B     32.8313   6.4688   0.0000   O.3      2310 RES2310   0.0000
 10690 O2B     32.8313   6.4688  20.7465   O.3      2311 RES2311   0.0000
 10691 O2B     32.8313   6.4688  41.4930   O.3      2312 RES2312   0.0000
 10692 O2B     32.8313  27.2153   0.0000   O.3      2313 RES2313   0.0000
 10693 O2B     32.8313  27.2153  20.7465   O.3      2314 RES2314   0.0000
 10694 O2B     32.8313  27.2153  41.4930   O.3      2315 RES2315   0.0000
 10695 O2B     14.2777  10.3733  19.0349   O.3      2316 RES2316   0.0000
 10696 O2B     14.2777  10.3733  39.7814   O.3      2317 RES2317   0.0000
 10697 O2B     14.2777  31.1198  19.0349   O.3      2318 RES2318   0.0000
 10698 O2B     14.2777  31.1198  39.7814   O.3      2319 RES2319   0.0000
 10699 O2B     35.0242  10.3733  19.0349   O.3      2320 RES2320   0.0000
 10700 O2B     35.0242  10.3733  39.7814   O.3      2321 RES2321   0.0000
 10701 O2B     35.0242  31.1198  19.0349   O.3      2322 RES2322   0.0000
 10702 O2B     35.0242  31.1198  39.7814   O.3      2323 RES2323   0.0000
 10703 O2B     14.2777  10.3733   1.7116   O.3      2324 RES2324   0.0000
 10704 O2B     14.2777  10.3733  22.4581   O.3      2325 RES2325   0.0000
 10705 O2B     14.2777  31.1198   1.7116   O.3      2326 RES2326   0.0000
 10706 O2B     14.2777  31.1198  22.4581   O.3      2327 RES2327   0.0000
 10707 O2B     35.0242  10.3733   1.7116   O.3      2328 RES2328   0.0000
 10708 O2B     35.0242  10.3733  22.4581   O.3      2329 RES2329   0.0000
 10709 O2B     35.0242  31.1198   1.7116   O.3      2330 RES2330   0.0000
 10710 O2B     35.0242  31.1198  22.4581   O.3      2331 RES2331   0.0000
 10711 O2B      6.4688  10.3733   1.7116   O.3      2332 RES2332   0.0000
 10712 O2B      6.4688  10.3733  22.4581   O.3      2333 RES2333   0.0000
 10713 O2B      6.4688  31.1198   1.7116   O.3      2334 RES2334   0.0000
 10714 O2B      6.4688  31.1198  22.4581   O.3      2335 RES2335   0.0000
 10715 O2B     27.2153  10.3733   1.7116   O.3      2336 RES2336   0.0000
 10716 O2B     27.2153  10.3733  22.4581   O.3      2337 RES2337   0.0000
 10717 O2B     27.2153  31.1198   1.7116   O.3      2338 RES2338   0.0000
 10718 O2B     27.2153  31.1198  22.4581   O.3      2339 RES2339   0.0000
 10719 O2B      6.4688  10.3733  19.0349   O.3      2340 RES2340   0.0000
 10720 O2B      6.4688  10.3733  39.7814   O.3      2341 RES2341   0.0000
 10721 O2B      6.4688  31.1198  19.0349   O.3      2342 RES2342   0.0000
 10722 O2B      6.4688  31.1198  39.7814   O.3      2343 RES2343   0.0000
 10723 O2B     27.2153  10.3733  19.0349   O.3      2344 RES2344   0.0000
 10724 O2B     27.2153  10.3733  39.7814   O.3      2345 RES2345   0.0000
 10725 O2B     27.2153  31.1198  19.0349   O.3      2346 RES2346   0.0000
 10726 O2B     27.2153  31.1198  39.7814   O.3      2347 RES2347   0.0000
@<TRIPOS>BOND
     1     1     2   un
     2     1     6    1
     3     1     8   un
     4     1    12    1
     5     1    14   un
     6     1    26   un
     7     1    38   un
     8     1    49   un
     9     1    69   un
    10     1    72    1
    11     1    73   un
    12     1    76    1
    13     2     7   un
    14     3     4   un
    15     3     7   un
    16     3    95   un
    17     4     5    1
    18     4   126   un
    19     6    26    1
    20     6    49    1
    21     7    94   un
    22     8    13   un
    23     9    10   un
    24     9    13   un
    25     9    98   un
    26    10    11    1
    27    10   123   un
    28    12    14    1
    29    12    38    1
    30    13    97   un
    31    14    15   un
    32    14    19    1
    33    14    21   un
    34    14    38   un
    35    14    49   un
    36    14    60   un
    37    14    68    1
    38    14    76    1
    39    14    89   un
    40    14    94   un
    41    15    20   un
    42    16    17   un
    43    16    20   un
    44    16    78   un
    45    17    18    1
    46    17   133   un
    47    19    49    1
    48    19    60    1
    49    20    77   un
    50    21    25   un
    51    22    23   un
    52    22    25   un
    53    22    87   un
    54    23    24    1
    55    23   132   un
    56    25    86   un
    57    26    27   un
    58    26    31    1
    59    26    33   un
    60    26    38   un
    61    26    49   un
    62    26    60   un
    63    26    64    1
    64    26    72    1
    65    26    97   un
    66    26   100   un
    67    27    32   un
    68    28    29   un
    69    28    32   un
    70    28    84   un
    71    29    30    1
    72    29   131   un
    73    31    38    1
    74    31    60    1
    75    32    83   un
    76    33    37   un
    77    34    35   un
    78    34    37   un
    79    34    81   un
    80    35    36    1
    81    35   134   un
    82    37    80   un
    83    38    39   un
    84    38    44   un
    85    38    60   un
    86    38    68    1
    87    38    72    1
    88    38    77   un
    89    38    80   un
    90    39    43   un
    91    40    41   un
    92    40    43   un
    93    40    74   un
    94    41    42    1
    95    41   116   un
    96    43    73   un
    97    44    48   un
    98    45    46   un
    99    45    48   un
   100    45    62   un
   101    46    47    1
   102    46   117   un
   103    48    61   un
   104    49    50   un
   105    49    55   un
   106    49    60   un
   107    49    64    1
   108    49    76    1
   109    49    83   un
   110    49    86   un
   111    50    54   un
   112    51    52   un
   113    51    54   un
   114    51    66   un
   115    52    53    1
   116    52   118   un
   117    54    65   un
   118    55    59   un
   119    56    57   un
   120    56    59   un
   121    56    70   un
   122    57    58    1
   123    57   115   un
   124    59    69   un
   125    60    61   un
   126    60    64    1
   127    60    65   un
   128    60    68    1
   129    60   105   un
   130    60   108   un
   131    62    63    1
   132    62   114   un
   133    66    67    1
   134    66   111   un
   135    70    71    1
   136    70   112   un
   137    74    75    1
   138    74   113   un
   139    78    79    1
   140    78   129   un
   141    81    82    1
   142    81   128   un
   143    84    85    1
   144    84   127   un
   145    87    88    1
   146    87   130   un
   147    89    93   un
   148    90    91   un
   149    90    93   un
   150    90   109   un
   151    91    92    1
   152    91   120   un
   153    93   108   un
   154    95    96    1
   155    95   121   un
   156    98    99    1
   157    98   122   un
   158   100   104   un
   159   101   102   un
   160   101   104   un
   161   101   106   un
   162   102   103    1
   163   102   119   un
   164   104   105   un
   165   106   107    1
   166   106   124   un
   167   109   110    1
   168   109   125   un
   169   135   136   un
   170   135   140    1
   171   135   142   un
   172   135   146    1
   173   135   148   un
   174   135   160   un
   175   135   172   un
   176   135   183   un
   177   135   203   un
   178   135   206    1
   179   135   207   un
   180   135   210    1
   181   136   141   un
   182   137   138   un
   183   137   141   un
   184   137   229   un
   185   138   139    1
   186   138   260   un
   187   140   160    1
   188   140   183    1
   189   141   228   un
   190   142   147   un
   191   143   144   un
   192   143   147   un
   193   143   232   un
   194   144   145    1
   195   144   257   un
   196   146   148    1
   197   146   172    1
   198   147   231   un
   199   148   149   un
   200   148   153    1
   201   148   155   un
   202   148   172   un
   203   148   183   un
   204   148   194   un
   205   148   202    1
   206   148   210    1
   207   148   223   un
   208   148   228   un
   209   149   154   un
   210   150   151   un
   211   150   154   un
   212   150   212   un
   213   151   152    1
   214   151   267   un
   215   153   183    1
   216   153   194    1
   217   154   211   un
   218   155   159   un
   219   156   157   un
   220   156   159   un
   221   156   221   un
   222   157   158    1
   223   157   266   un
   224   159   220   un
   225   160   161   un
   226   160   165    1
   227   160   167   un
   228   160   172   un
   229   160   183   un
   230   160   194   un
   231   160   198    1
   232   160   206    1
   233   160   231   un
   234   160   234   un
   235   161   166   un
   236   162   163   un
   237   162   166   un
   238   162   218   un
   239   163   164    1
   240   163   265   un
   241   165   172    1
   242   165   194    1
   243   166   217   un
   244   167   171   un
   245   168   169   un
   246   168   171   un
   247   168   215   un
   248   169   170    1
   249   169   268   un
   250   171   214   un
   251   172   173   un
   252   172   178   un
   253   172   194   un
   254   172   202    1
   255   172   206    1
   256   172   211   un
   257   172   214   un
   258   173   177   un
   259   174   175   un
   260   174   177   un
   261   174   208   un
   262   175   176    1
   263   175   250   un
   264   177   207   un
   265   178   182   un
   266   179   180   un
   267   179   182   un
   268   179   196   un
   269   180   181    1
   270   180   251   un
   271   182   195   un
   272   183   184   un
   273   183   189   un
   274   183   194   un
   275   183   198    1
   276   183   210    1
   277   183   217   un
   278   183   220   un
   279   184   188   un
   280   185   186   un
   281   185   188   un
   282   185   200   un
   283   186   187    1
   284   186   252   un
   285   188   199   un
   286   189   193   un
   287   190   191   un
   288   190   193   un
   289   190   204   un
   290   191   192    1
   291   191   249   un
   292   193   203   un
   293   194   195   un
   294   194   198    1
   295   194   199   un
   296   194   202    1
   297   194   239   un
   298   194   242   un
   299   196   197    1
   300   196   248   un
   301   200   201    1
   302   200   245   un
   303   204   205    1
   304   204   246   un
   305   208   209    1
   306   208   247   un
   307   212   213    1
   308   212   263   un
   309   215   216    1
   310   215   262   un
   311   218   219    1
   312   218   261   un
   313   221   222    1
   314   221   264   un
   315   223   227   un
   316   224   225   un
   317   224   227   un
   318   224   243   un
   319   225   226    1
   320   225   254   un
   321   227   242   un
   322   229   230    1
   323   229   255   un
   324   232   233    1
   325   232   256   un
   326   234   238   un
   327   235   236   un
   328   235   238   un
   329   235   240   un
   330   236   237    1
   331   236   253   un
   332   238   239   un
   333   240   241    1
   334   240   258   un
   335   243   244    1
   336   243   259   un
   337   269   270   un
   338   269   274    1
   339   269   276   un
   340   269   280    1
   341   269   282   un
   342   269   294   un
   343   269   306   un
   344   269   317   un
   345   269   337   un
   346   269   340    1
   347   269   341   un
   348   269   344    1
   349   270   275   un
   350   271   272   un
   351   271   275   un
   352   271   363   un
   353   272   273    1
   354   272   394   un
   355   274   294    1
   356   274   317    1
   357   275   362   un
   358   276   281   un
   359   277   278   un
   360   277   281   un
   361   277   366   un
   362   278   279    1
   363   278   391   un
   364   280   282    1
   365   280   306    1
   366   281   365   un
   367   282   283   un
   368   282   287    1
   369   282   289   un
   370   282   306   un
   371   282   317   un
   372   282   328   un
   373   282   336    1
   374   282   344    1
   375   282   357   un
   376   282   362   un
   377   283   288   un
   378   284   285   un
   379   284   288   un
   380   284   346   un
   381   285   286    1
   382   285   401   un
   383   287   317    1
   384   287   328    1
   385   288   345   un
   386   289   293   un
   387   290   291   un
   388   290   293   un
   389   290   355   un
   390   291   292    1
   391   291   400   un
   392   293   354   un
   393   294   295   un
   394   294   299    1
   395   294   301   un
   396   294   306   un
   397   294   317   un
   398   294   328   un
   399   294   332    1
   400   294   340    1
   401   294   365   un
   402   294   368   un
   403   295   300   un
   404   296   297   un
   405   296   300   un
   406   296   352   un
   407   297   298    1
   408   297   399   un
   409   299   306    1
   410   299   328    1
   411   300   351   un
   412   301   305   un
   413   302   303   un
   414   302   305   un
   415   302   349   un
   416   303   304    1
   417   303   402   un
   418   305   348   un
   419   306   307   un
   420   306   312   un
   421   306   328   un
   422   306   336    1
   423   306   340    1
   424   306   345   un
   425   306   348   un
   426   307   311   un
   427   308   309   un
   428   308   311   un
   429   308   342   un
   430   309   310    1
   431   309   384   un
   432   311   341   un
   433   312   316   un
   434   313   314   un
   435   313   316   un
   436   313   330   un
   437   314   315    1
   438   314   385   un
   439   316   329   un
   440   317   318   un
   441   317   323   un
   442   317   328   un
   443   317   332    1
   444   317   344    1
   445   317   351   un
   446   317   354   un
   447   318   322   un
   448   319   320   un
   449   319   322   un
   450   319   334   un
   451   320   321    1
   452   320   386   un
   453   322   333   un
   454   323   327   un
   455   324   325   un
   456   324   327   un
   457   324   338   un
   458   325   326    1
   459   325   383   un
   460   327   337   un
   461   328   329   un
   462   328   332    1
   463   328   333   un
   464   328   336    1
   465   328   373   un
   466   328   376   un
   467   330   331    1
   468   330   382   un
   469   334   335    1
   470   334   379   un
   471   338   339    1
   472   338   380   un
   473   342   343    1
   474   342   381   un
   475   346   347    1
   476   346   397   un
   477   349   350    1
   478   349   396   un
   479   352   353    1
   480   352   395   un
   481   355   356    1
   482   355   398   un
   483   357   361   un
   484   358   359   un
   485   358   361   un
   486   358   377   un
   487   359   360    1
   488   359   388   un
   489   361   376   un
   490   363   364    1
   491   363   389   un
   492   366   367    1
   493   366   390   un
   494   368   372   un
   495   369   370   un
   496   369   372   un
   497   369   374   un
   498   370   371    1
   499   370   387   un
   500   372   373   un
   501   374   375    1
   502   374   392   un
   503   377   378    1
   504   377   393   un
   505   403   404   un
   506   403   408    1
   507   403   410   un
   508   403   414    1
   509   403   416   un
   510   403   428   un
   511   403   440   un
   512   403   451   un
   513   403   471   un
   514   403   474    1
   515   403   475   un
   516   403   478    1
   517   404   409   un
   518   405   406   un
   519   405   409   un
   520   405   497   un
   521   406   407    1
   522   406   528   un
   523   408   428    1
   524   408   451    1
   525   409   496   un
   526   410   415   un
   527   411   412   un
   528   411   415   un
   529   411   500   un
   530   412   413    1
   531   412   525   un
   532   414   416    1
   533   414   440    1
   534   415   499   un
   535   416   417   un
   536   416   421    1
   537   416   423   un
   538   416   440   un
   539   416   451   un
   540   416   462   un
   541   416   470    1
   542   416   478    1
   543   416   491   un
   544   416   496   un
   545   417   422   un
   546   418   419   un
   547   418   422   un
   548   418   480   un
   549   419   420    1
   550   419   535   un
   551   421   451    1
   552   421   462    1
   553   422   479   un
   554   423   427   un
   555   424   425   un
   556   424   427   un
   557   424   489   un
   558   425   426    1
   559   425   534   un
   560   427   488   un
   561   428   429   un
   562   428   433    1
   563   428   435   un
   564   428   440   un
   565   428   451   un
   566   428   462   un
   567   428   466    1
   568   428   474    1
   569   428   499   un
   570   428   502   un
   571   429   434   un
   572   430   431   un
   573   430   434   un
   574   430   486   un
   575   431   432    1
   576   431   533   un
   577   433   440    1
   578   433   462    1
   579   434   485   un
   580   435   439   un
   581   436   437   un
   582   436   439   un
   583   436   483   un
   584   437   438    1
   585   437   536   un
   586   439   482   un
   587   440   441   un
   588   440   446   un
   589   440   462   un
   590   440   470    1
   591   440   474    1
   592   440   479   un
   593   440   482   un
   594   441   445   un
   595   442   443   un
   596   442   445   un
   597   442   476   un
   598   443   444    1
   599   443   518   un
   600   445   475   un
   601   446   450   un
   602   447   448   un
   603   447   450   un
   604   447   464   un
   605   448   449    1
   606   448   519   un
   607   450   463   un
   608   451   452   un
   609   451   457   un
   610   451   462   un
   611   451   466    1
   612   451   478    1
   613   451   485   un
   614   451   488   un
   615   452   456   un
   616   453   454   un
   617   453   456   un
   618   453   468   un
   619   454   455    1
   620   454   520   un
   621   456   467   un
   622   457   461   un
   623   458   459   un
   624   458   461   un
   625   458   472   un
   626   459   460    1
   627   459   517   un
   628   461   471   un
   629   462   463   un
   630   462   466    1
   631   462   467   un
   632   462   470    1
   633   462   507   un
   634   462   510   un
   635   464   465    1
   636   464   516   un
   637   468   469    1
   638   468   513   un
   639   472   473    1
   640   472   514   un
   641   476   477    1
   642   476   515   un
   643   480   481    1
   644   480   531   un
   645   483   484    1
   646   483   530   un
   647   486   487    1
   648   486   529   un
   649   489   490    1
   650   489   532   un
   651   491   495   un
   652   492   493   un
   653   492   495   un
   654   492   511   un
   655   493   494    1
   656   493   522   un
   657   495   510   un
   658   497   498    1
   659   497   523   un
   660   500   501    1
   661   500   524   un
   662   502   506   un
   663   503   504   un
   664   503   506   un
   665   503   508   un
   666   504   505    1
   667   504   521   un
   668   506   507   un
   669   508   509    1
   670   508   526   un
   671   511   512    1
   672   511   527   un
   673   537   538   un
   674   537   542    1
   675   537   544   un
   676   537   548    1
   677   537   550   un
   678   537   562   un
   679   537   574   un
   680   537   585   un
   681   537   605   un
   682   537   608    1
   683   537   609   un
   684   537   612    1
   685   538   543   un
   686   539   540   un
   687   539   543   un
   688   539   631   un
   689   540   541    1
   690   540   662   un
   691   542   562    1
   692   542   585    1
   693   543   630   un
   694   544   549   un
   695   545   546   un
   696   545   549   un
   697   545   634   un
   698   546   547    1
   699   546   659   un
   700   548   550    1
   701   548   574    1
   702   549   633   un
   703   550   551   un
   704   550   555    1
   705   550   557   un
   706   550   574   un
   707   550   585   un
   708   550   596   un
   709   550   604    1
   710   550   612    1
   711   550   625   un
   712   550   630   un
   713   551   556   un
   714   552   553   un
   715   552   556   un
   716   552   614   un
   717   553   554    1
   718   553   669   un
   719   555   585    1
   720   555   596    1
   721   556   613   un
   722   557   561   un
   723   558   559   un
   724   558   561   un
   725   558   623   un
   726   559   560    1
   727   559   668   un
   728   561   622   un
   729   562   563   un
   730   562   567    1
   731   562   569   un
   732   562   574   un
   733   562   585   un
   734   562   596   un
   735   562   600    1
   736   562   608    1
   737   562   633   un
   738   562   636   un
   739   563   568   un
   740   564   565   un
   741   564   568   un
   742   564   620   un
   743   565   566    1
   744   565   667   un
   745   567   574    1
   746   567   596    1
   747   568   619   un
   748   569   573   un
   749   570   571   un
   750   570   573   un
   751   570   617   un
   752   571   572    1
   753   571   670   un
   754   573   616   un
   755   574   575   un
   756   574   580   un
   757   574   596   un
   758   574   604    1
   759   574   608    1
   760   574   613   un
   761   574   616   un
   762   575   579   un
   763   576   577   un
   764   576   579   un
   765   576   610   un
   766   577   578    1
   767   577   652   un
   768   579   609   un
   769   580   584   un
   770   581   582   un
   771   581   584   un
   772   581   598   un
   773   582   583    1
   774   582   653   un
   775   584   597   un
   776   585   586   un
   777   585   591   un
   778   585   596   un
   779   585   600    1
   780   585   612    1
   781   585   619   un
   782   585   622   un
   783   586   590   un
   784   587   588   un
   785   587   590   un
   786   587   602   un
   787   588   589    1
   788   588   654   un
   789   590   601   un
   790   591   595   un
   791   592   593   un
   792   592   595   un
   793   592   606   un
   794   593   594    1
   795   593   651   un
   796   595   605   un
   797   596   597   un
   798   596   600    1
   799   596   601   un
   800   596   604    1
   801   596   641   un
   802   596   644   un
   803   598   599    1
   804   598   650   un
   805   602   603    1
   806   602   647   un
   807   606   607    1
   808   606   648   un
   809   610   611    1
   810   610   649   un
   811   614   615    1
   812   614   665   un
   813   617   618    1
   814   617   664   un
   815   620   621    1
   816   620   663   un
   817   623   624    1
   818   623   666   un
   819   625   629   un
   820   626   627   un
   821   626   629   un
   822   626   645   un
   823   627   628    1
   824   627   656   un
   825   629   644   un
   826   631   632    1
   827   631   657   un
   828   634   635    1
   829   634   658   un
   830   636   640   un
   831   637   638   un
   832   637   640   un
   833   637   642   un
   834   638   639    1
   835   638   655   un
   836   640   641   un
   837   642   643    1
   838   642   660   un
   839   645   646    1
   840   645   661   un
   841   671   672   un
   842   671   676    1
   843   671   678   un
   844   671   682    1
   845   671   684   un
   846   671   696   un
   847   671   708   un
   848   671   719   un
   849   671   739   un
   850   671   742    1
   851   671   743   un
   852   671   746    1
   853   672   677   un
   854   673   674   un
   855   673   677   un
   856   673   765   un
   857   674   675    1
   858   674   796   un
   859   676   696    1
   860   676   719    1
   861   677   764   un
   862   678   683   un
   863   679   680   un
   864   679   683   un
   865   679   768   un
   866   680   681    1
   867   680   793   un
   868   682   684    1
   869   682   708    1
   870   683   767   un
   871   684   685   un
   872   684   689    1
   873   684   691   un
   874   684   708   un
   875   684   719   un
   876   684   730   un
   877   684   738    1
   878   684   746    1
   879   684   759   un
   880   684   764   un
   881   685   690   un
   882   686   687   un
   883   686   690   un
   884   686   748   un
   885   687   688    1
   886   687   803   un
   887   689   719    1
   888   689   730    1
   889   690   747   un
   890   691   695   un
   891   692   693   un
   892   692   695   un
   893   692   757   un
   894   693   694    1
   895   693   802   un
   896   695   756   un
   897   696   697   un
   898   696   701    1
   899   696   703   un
   900   696   708   un
   901   696   719   un
   902   696   730   un
   903   696   734    1
   904   696   742    1
   905   696   767   un
   906   696   770   un
   907   697   702   un
   908   698   699   un
   909   698   702   un
   910   698   754   un
   911   699   700    1
   912   699   801   un
   913   701   708    1
   914   701   730    1
   915   702   753   un
   916   703   707   un
   917   704   705   un
   918   704   707   un
   919   704   751   un
   920   705   706    1
   921   705   804   un
   922   707   750   un
   923   708   709   un
   924   708   714   un
   925   708   730   un
   926   708   738    1
   927   708   742    1
   928   708   747   un
   929   708   750   un
   930   709   713   un
   931   710   711   un
   932   710   713   un
   933   710   744   un
   934   711   712    1
   935   711   786   un
   936   713   743   un
   937   714   718   un
   938   715   716   un
   939   715   718   un
   940   715   732   un
   941   716   717    1
   942   716   787   un
   943   718   731   un
   944   719   720   un
   945   719   725   un
   946   719   730   un
   947   719   734    1
   948   719   746    1
   949   719   753   un
   950   719   756   un
   951   720   724   un
   952   721   722   un
   953   721   724   un
   954   721   736   un
   955   722   723    1
   956   722   788   un
   957   724   735   un
   958   725   729   un
   959   726   727   un
   960   726   729   un
   961   726   740   un
   962   727   728    1
   963   727   785   un
   964   729   739   un
   965   730   731   un
   966   730   734    1
   967   730   735   un
   968   730   738    1
   969   730   775   un
   970   730   778   un
   971   732   733    1
   972   732   784   un
   973   736   737    1
   974   736   781   un
   975   740   741    1
   976   740   782   un
   977   744   745    1
   978   744   783   un
   979   748   749    1
   980   748   799   un
   981   751   752    1
   982   751   798   un
   983   754   755    1
   984   754   797   un
   985   757   758    1
   986   757   800   un
   987   759   763   un
   988   760   761   un
   989   760   763   un
   990   760   779   un
   991   761   762    1
   992   761   790   un
   993   763   778   un
   994   765   766    1
   995   765   791   un
   996   768   769    1
   997   768   792   un
   998   770   774   un
   999   771   772   un
  1000   771   774   un
  1001   771   776   un
  1002   772   773    1
  1003   772   789   un
  1004   774   775   un
  1005   776   777    1
  1006   776   794   un
  1007   779   780    1
  1008   779   795   un
  1009   805   806   un
  1010   805   810    1
  1011   805   812   un
  1012   805   816    1
  1013   805   818   un
  1014   805   830   un
  1015   805   842   un
  1016   805   853   un
  1017   805   873   un
  1018   805   876    1
  1019   805   877   un
  1020   805   880    1
  1021   806   811   un
  1022   807   808   un
  1023   807   811   un
  1024   807   899   un
  1025   808   809    1
  1026   808   930   un
  1027   810   830    1
  1028   810   853    1
  1029   811   898   un
  1030   812   817   un
  1031   813   814   un
  1032   813   817   un
  1033   813   902   un
  1034   814   815    1
  1035   814   927   un
  1036   816   818    1
  1037   816   842    1
  1038   817   901   un
  1039   818   819   un
  1040   818   823    1
  1041   818   825   un
  1042   818   842   un
  1043   818   853   un
  1044   818   864   un
  1045   818   872    1
  1046   818   880    1
  1047   818   893   un
  1048   818   898   un
  1049   819   824   un
  1050   820   821   un
  1051   820   824   un
  1052   820   882   un
  1053   821   822    1
  1054   821   937   un
  1055   823   853    1
  1056   823   864    1
  1057   824   881   un
  1058   825   829   un
  1059   826   827   un
  1060   826   829   un
  1061   826   891   un
  1062   827   828    1
  1063   827   936   un
  1064   829   890   un
  1065   830   831   un
  1066   830   835    1
  1067   830   837   un
  1068   830   842   un
  1069   830   853   un
  1070   830   864   un
  1071   830   868    1
  1072   830   876    1
  1073   830   901   un
  1074   830   904   un
  1075   831   836   un
  1076   832   833   un
  1077   832   836   un
  1078   832   888   un
  1079   833   834    1
  1080   833   935   un
  1081   835   842    1
  1082   835   864    1
  1083   836   887   un
  1084   837   841   un
  1085   838   839   un
  1086   838   841   un
  1087   838   885   un
  1088   839   840    1
  1089   839   938   un
  1090   841   884   un
  1091   842   843   un
  1092   842   848   un
  1093   842   864   un
  1094   842   872    1
  1095   842   876    1
  1096   842   881   un
  1097   842   884   un
  1098   843   847   un
  1099   844   845   un
  1100   844   847   un
  1101   844   878   un
  1102   845   846    1
  1103   845   920   un
  1104   847   877   un
  1105   848   852   un
  1106   849   850   un
  1107   849   852   un
  1108   849   866   un
  1109   850   851    1
  1110   850   921   un
  1111   852   865   un
  1112   853   854   un
  1113   853   859   un
  1114   853   864   un
  1115   853   868    1
  1116   853   880    1
  1117   853   887   un
  1118   853   890   un
  1119   854   858   un
  1120   855   856   un
  1121   855   858   un
  1122   855   870   un
  1123   856   857    1
  1124   856   922   un
  1125   858   869   un
  1126   859   863   un
  1127   860   861   un
  1128   860   863   un
  1129   860   874   un
  1130   861   862    1
  1131   861   919   un
  1132   863   873   un
  1133   864   865   un
  1134   864   868    1
  1135   864   869   un
  1136   864   872    1
  1137   864   909   un
  1138   864   912   un
  1139   866   867    1
  1140   866   918   un
  1141   870   871    1
  1142   870   915   un
  1143   874   875    1
  1144   874   916   un
  1145   878   879    1
  1146   878   917   un
  1147   882   883    1
  1148   882   933   un
  1149   885   886    1
  1150   885   932   un
  1151   888   889    1
  1152   888   931   un
  1153   891   892    1
  1154   891   934   un
  1155   893   897   un
  1156   894   895   un
  1157   894   897   un
  1158   894   913   un
  1159   895   896    1
  1160   895   924   un
  1161   897   912   un
  1162   899   900    1
  1163   899   925   un
  1164   902   903    1
  1165   902   926   un
  1166   904   908   un
  1167   905   906   un
  1168   905   908   un
  1169   905   910   un
  1170   906   907    1
  1171   906   923   un
  1172   908   909   un
  1173   910   911    1
  1174   910   928   un
  1175   913   914    1
  1176   913   929   un
  1177   939   940   un
  1178   939   944    1
  1179   939   946   un
  1180   939   950    1
  1181   939   952   un
  1182   939   964   un
  1183   939   976   un
  1184   939   987   un
  1185   939  1007   un
  1186   939  1010    1
  1187   939  1011   un
  1188   939  1014    1
  1189   940   945   un
  1190   941   942   un
  1191   941   945   un
  1192   941  1033   un
  1193   942   943    1
  1194   942  1064   un
  1195   944   964    1
  1196   944   987    1
  1197   945  1032   un
  1198   946   951   un
  1199   947   948   un
  1200   947   951   un
  1201   947  1036   un
  1202   948   949    1
  1203   948  1061   un
  1204   950   952    1
  1205   950   976    1
  1206   951  1035   un
  1207   952   953   un
  1208   952   957    1
  1209   952   959   un
  1210   952   976   un
  1211   952   987   un
  1212   952   998   un
  1213   952  1006    1
  1214   952  1014    1
  1215   952  1027   un
  1216   952  1032   un
  1217   953   958   un
  1218   954   955   un
  1219   954   958   un
  1220   954  1016   un
  1221   955   956    1
  1222   955  1071   un
  1223   957   987    1
  1224   957   998    1
  1225   958  1015   un
  1226   959   963   un
  1227   960   961   un
  1228   960   963   un
  1229   960  1025   un
  1230   961   962    1
  1231   961  1070   un
  1232   963  1024   un
  1233   964   965   un
  1234   964   969    1
  1235   964   971   un
  1236   964   976   un
  1237   964   987   un
  1238   964   998   un
  1239   964  1002    1
  1240   964  1010    1
  1241   964  1035   un
  1242   964  1038   un
  1243   965   970   un
  1244   966   967   un
  1245   966   970   un
  1246   966  1022   un
  1247   967   968    1
  1248   967  1069   un
  1249   969   976    1
  1250   969   998    1
  1251   970  1021   un
  1252   971   975   un
  1253   972   973   un
  1254   972   975   un
  1255   972  1019   un
  1256   973   974    1
  1257   973  1072   un
  1258   975  1018   un
  1259   976   977   un
  1260   976   982   un
  1261   976   998   un
  1262   976  1006    1
  1263   976  1010    1
  1264   976  1015   un
  1265   976  1018   un
  1266   977   981   un
  1267   978   979   un
  1268   978   981   un
  1269   978  1012   un
  1270   979   980    1
  1271   979  1054   un
  1272   981  1011   un
  1273   982   986   un
  1274   983   984   un
  1275   983   986   un
  1276   983  1000   un
  1277   984   985    1
  1278   984  1055   un
  1279   986   999   un
  1280   987   988   un
  1281   987   993   un
  1282   987   998   un
  1283   987  1002    1
  1284   987  1014    1
  1285   987  1021   un
  1286   987  1024   un
  1287   988   992   un
  1288   989   990   un
  1289   989   992   un
  1290   989  1004   un
  1291   990   991    1
  1292   990  1056   un
  1293   992  1003   un
  1294   993   997   un
  1295   994   995   un
  1296   994   997   un
  1297   994  1008   un
  1298   995   996    1
  1299   995  1053   un
  1300   997  1007   un
  1301   998   999   un
  1302   998  1002    1
  1303   998  1003   un
  1304   998  1006    1
  1305   998  1043   un
  1306   998  1046   un
  1307  1000  1001    1
  1308  1000  1052   un
  1309  1004  1005    1
  1310  1004  1049   un
  1311  1008  1009    1
  1312  1008  1050   un
  1313  1012  1013    1
  1314  1012  1051   un
  1315  1016  1017    1
  1316  1016  1067   un
  1317  1019  1020    1
  1318  1019  1066   un
  1319  1022  1023    1
  1320  1022  1065   un
  1321  1025  1026    1
  1322  1025  1068   un
  1323  1027  1031   un
  1324  1028  1029   un
  1325  1028  1031   un
  1326  1028  1047   un
  1327  1029  1030    1
  1328  1029  1058   un
  1329  1031  1046   un
  1330  1033  1034    1
  1331  1033  1059   un
  1332  1036  1037    1
  1333  1036  1060   un
  1334  1038  1042   un
  1335  1039  1040   un
  1336  1039  1042   un
  1337  1039  1044   un
  1338  1040  1041    1
  1339  1040  1057   un
  1340  1042  1043   un
  1341  1044  1045    1
  1342  1044  1062   un
  1343  1047  1048    1
  1344  1047  1063   un
  1345  1073  1074   un
  1346  1073  1078    1
  1347  1073  1080   un
  1348  1073  1084    1
  1349  1073  1086   un
  1350  1073  1098   un
  1351  1073  1110   un
  1352  1073  1121   un
  1353  1073  1141   un
  1354  1073  1144    1
  1355  1073  1145   un
  1356  1073  1148    1
  1357  1074  1079   un
  1358  1075  1076   un
  1359  1075  1079   un
  1360  1075  1167   un
  1361  1076  1077    1
  1362  1076  1198   un
  1363  1078  1098    1
  1364  1078  1121    1
  1365  1079  1166   un
  1366  1080  1085   un
  1367  1081  1082   un
  1368  1081  1085   un
  1369  1081  1170   un
  1370  1082  1083    1
  1371  1082  1195   un
  1372  1084  1086    1
  1373  1084  1110    1
  1374  1085  1169   un
  1375  1086  1087   un
  1376  1086  1091    1
  1377  1086  1093   un
  1378  1086  1110   un
  1379  1086  1121   un
  1380  1086  1132   un
  1381  1086  1140    1
  1382  1086  1148    1
  1383  1086  1161   un
  1384  1086  1166   un
  1385  1087  1092   un
  1386  1088  1089   un
  1387  1088  1092   un
  1388  1088  1150   un
  1389  1089  1090    1
  1390  1089  1205   un
  1391  1091  1121    1
  1392  1091  1132    1
  1393  1092  1149   un
  1394  1093  1097   un
  1395  1094  1095   un
  1396  1094  1097   un
  1397  1094  1159   un
  1398  1095  1096    1
  1399  1095  1204   un
  1400  1097  1158   un
  1401  1098  1099   un
  1402  1098  1103    1
  1403  1098  1105   un
  1404  1098  1110   un
  1405  1098  1121   un
  1406  1098  1132   un
  1407  1098  1136    1
  1408  1098  1144    1
  1409  1098  1169   un
  1410  1098  1172   un
  1411  1099  1104   un
  1412  1100  1101   un
  1413  1100  1104   un
  1414  1100  1156   un
  1415  1101  1102    1
  1416  1101  1203   un
  1417  1103  1110    1
  1418  1103  1132    1
  1419  1104  1155   un
  1420  1105  1109   un
  1421  1106  1107   un
  1422  1106  1109   un
  1423  1106  1153   un
  1424  1107  1108    1
  1425  1107  1206   un
  1426  1109  1152   un
  1427  1110  1111   un
  1428  1110  1116   un
  1429  1110  1132   un
  1430  1110  1140    1
  1431  1110  1144    1
  1432  1110  1149   un
  1433  1110  1152   un
  1434  1111  1115   un
  1435  1112  1113   un
  1436  1112  1115   un
  1437  1112  1146   un
  1438  1113  1114    1
  1439  1113  1188   un
  1440  1115  1145   un
  1441  1116  1120   un
  1442  1117  1118   un
  1443  1117  1120   un
  1444  1117  1134   un
  1445  1118  1119    1
  1446  1118  1189   un
  1447  1120  1133   un
  1448  1121  1122   un
  1449  1121  1127   un
  1450  1121  1132   un
  1451  1121  1136    1
  1452  1121  1148    1
  1453  1121  1155   un
  1454  1121  1158   un
  1455  1122  1126   un
  1456  1123  1124   un
  1457  1123  1126   un
  1458  1123  1138   un
  1459  1124  1125    1
  1460  1124  1190   un
  1461  1126  1137   un
  1462  1127  1131   un
  1463  1128  1129   un
  1464  1128  1131   un
  1465  1128  1142   un
  1466  1129  1130    1
  1467  1129  1187   un
  1468  1131  1141   un
  1469  1132  1133   un
  1470  1132  1136    1
  1471  1132  1137   un
  1472  1132  1140    1
  1473  1132  1177   un
  1474  1132  1180   un
  1475  1134  1135    1
  1476  1134  1186   un
  1477  1138  1139    1
  1478  1138  1183   un
  1479  1142  1143    1
  1480  1142  1184   un
  1481  1146  1147    1
  1482  1146  1185   un
  1483  1150  1151    1
  1484  1150  1201   un
  1485  1153  1154    1
  1486  1153  1200   un
  1487  1156  1157    1
  1488  1156  1199   un
  1489  1159  1160    1
  1490  1159  1202   un
  1491  1161  1165   un
  1492  1162  1163   un
  1493  1162  1165   un
  1494  1162  1181   un
  1495  1163  1164    1
  1496  1163  1192   un
  1497  1165  1180   un
  1498  1167  1168    1
  1499  1167  1193   un
  1500  1170  1171    1
  1501  1170  1194   un
  1502  1172  1176   un
  1503  1173  1174   un
  1504  1173  1176   un
  1505  1173  1178   un
  1506  1174  1175    1
  1507  1174  1191   un
  1508  1176  1177   un
  1509  1178  1179    1
  1510  1178  1196   un
  1511  1181  1182    1
  1512  1181  1197   un
  1513  1207  1208   un
  1514  1207  1212    1
  1515  1207  1214   un
  1516  1207  1218    1
  1517  1207  1220   un
  1518  1207  1232   un
  1519  1207  1244   un
  1520  1207  1255   un
  1521  1207  1275   un
  1522  1207  1278    1
  1523  1207  1279   un
  1524  1207  1282    1
  1525  1208  1213   un
  1526  1209  1210   un
  1527  1209  1213   un
  1528  1209  1301   un
  1529  1210  1211    1
  1530  1210  1332   un
  1531  1212  1232    1
  1532  1212  1255    1
  1533  1213  1300   un
  1534  1214  1219   un
  1535  1215  1216   un
  1536  1215  1219   un
  1537  1215  1304   un
  1538  1216  1217    1
  1539  1216  1329   un
  1540  1218  1220    1
  1541  1218  1244    1
  1542  1219  1303   un
  1543  1220  1221   un
  1544  1220  1225    1
  1545  1220  1227   un
  1546  1220  1244   un
  1547  1220  1255   un
  1548  1220  1266   un
  1549  1220  1274    1
  1550  1220  1282    1
  1551  1220  1295   un
  1552  1220  1300   un
  1553  1221  1226   un
  1554  1222  1223   un
  1555  1222  1226   un
  1556  1222  1284   un
  1557  1223  1224    1
  1558  1223  1339   un
  1559  1225  1255    1
  1560  1225  1266    1
  1561  1226  1283   un
  1562  1227  1231   un
  1563  1228  1229   un
  1564  1228  1231   un
  1565  1228  1293   un
  1566  1229  1230    1
  1567  1229  1338   un
  1568  1231  1292   un
  1569  1232  1233   un
  1570  1232  1237    1
  1571  1232  1239   un
  1572  1232  1244   un
  1573  1232  1255   un
  1574  1232  1266   un
  1575  1232  1270    1
  1576  1232  1278    1
  1577  1232  1303   un
  1578  1232  1306   un
  1579  1233  1238   un
  1580  1234  1235   un
  1581  1234  1238   un
  1582  1234  1290   un
  1583  1235  1236    1
  1584  1235  1337   un
  1585  1237  1244    1
  1586  1237  1266    1
  1587  1238  1289   un
  1588  1239  1243   un
  1589  1240  1241   un
  1590  1240  1243   un
  1591  1240  1287   un
  1592  1241  1242    1
  1593  1241  1340   un
  1594  1243  1286   un
  1595  1244  1245   un
  1596  1244  1250   un
  1597  1244  1266   un
  1598  1244  1274    1
  1599  1244  1278    1
  1600  1244  1283   un
  1601  1244  1286   un
  1602  1245  1249   un
  1603  1246  1247   un
  1604  1246  1249   un
  1605  1246  1280   un
  1606  1247  1248    1
  1607  1247  1322   un
  1608  1249  1279   un
  1609  1250  1254   un
  1610  1251  1252   un
  1611  1251  1254   un
  1612  1251  1268   un
  1613  1252  1253    1
  1614  1252  1323   un
  1615  1254  1267   un
  1616  1255  1256   un
  1617  1255  1261   un
  1618  1255  1266   un
  1619  1255  1270    1
  1620  1255  1282    1
  1621  1255  1289   un
  1622  1255  1292   un
  1623  1256  1260   un
  1624  1257  1258   un
  1625  1257  1260   un
  1626  1257  1272   un
  1627  1258  1259    1
  1628  1258  1324   un
  1629  1260  1271   un
  1630  1261  1265   un
  1631  1262  1263   un
  1632  1262  1265   un
  1633  1262  1276   un
  1634  1263  1264    1
  1635  1263  1321   un
  1636  1265  1275   un
  1637  1266  1267   un
  1638  1266  1270    1
  1639  1266  1271   un
  1640  1266  1274    1
  1641  1266  1311   un
  1642  1266  1314   un
  1643  1268  1269    1
  1644  1268  1320   un
  1645  1272  1273    1
  1646  1272  1317   un
  1647  1276  1277    1
  1648  1276  1318   un
  1649  1280  1281    1
  1650  1280  1319   un
  1651  1284  1285    1
  1652  1284  1335   un
  1653  1287  1288    1
  1654  1287  1334   un
  1655  1290  1291    1
  1656  1290  1333   un
  1657  1293  1294    1
  1658  1293  1336   un
  1659  1295  1299   un
  1660  1296  1297   un
  1661  1296  1299   un
  1662  1296  1315   un
  1663  1297  1298    1
  1664  1297  1326   un
  1665  1299  1314   un
  1666  1301  1302    1
  1667  1301  1327   un
  1668  1304  1305    1
  1669  1304  1328   un
  1670  1306  1310   un
  1671  1307  1308   un
  1672  1307  1310   un
  1673  1307  1312   un
  1674  1308  1309    1
  1675  1308  1325   un
  1676  1310  1311   un
  1677  1312  1313    1
  1678  1312  1330   un
  1679  1315  1316    1
  1680  1315  1331   un
  1681  1341  1342   un
  1682  1341  1346    1
  1683  1341  1348   un
  1684  1341  1352    1
  1685  1341  1354   un
  1686  1341  1366   un
  1687  1341  1378   un
  1688  1341  1389   un
  1689  1341  1409   un
  1690  1341  1412    1
  1691  1341  1413   un
  1692  1341  1416    1
  1693  1342  1347   un
  1694  1343  1344   un
  1695  1343  1347   un
  1696  1343  1435   un
  1697  1344  1345    1
  1698  1344  1466   un
  1699  1346  1366    1
  1700  1346  1389    1
  1701  1347  1434   un
  1702  1348  1353   un
  1703  1349  1350   un
  1704  1349  1353   un
  1705  1349  1438   un
  1706  1350  1351    1
  1707  1350  1463   un
  1708  1352  1354    1
  1709  1352  1378    1
  1710  1353  1437   un
  1711  1354  1355   un
  1712  1354  1359    1
  1713  1354  1361   un
  1714  1354  1378   un
  1715  1354  1389   un
  1716  1354  1400   un
  1717  1354  1408    1
  1718  1354  1416    1
  1719  1354  1429   un
  1720  1354  1434   un
  1721  1355  1360   un
  1722  1356  1357   un
  1723  1356  1360   un
  1724  1356  1418   un
  1725  1357  1358    1
  1726  1357  1473   un
  1727  1359  1389    1
  1728  1359  1400    1
  1729  1360  1417   un
  1730  1361  1365   un
  1731  1362  1363   un
  1732  1362  1365   un
  1733  1362  1427   un
  1734  1363  1364    1
  1735  1363  1472   un
  1736  1365  1426   un
  1737  1366  1367   un
  1738  1366  1371    1
  1739  1366  1373   un
  1740  1366  1378   un
  1741  1366  1389   un
  1742  1366  1400   un
  1743  1366  1404    1
  1744  1366  1412    1
  1745  1366  1437   un
  1746  1366  1440   un
  1747  1367  1372   un
  1748  1368  1369   un
  1749  1368  1372   un
  1750  1368  1424   un
  1751  1369  1370    1
  1752  1369  1471   un
  1753  1371  1378    1
  1754  1371  1400    1
  1755  1372  1423   un
  1756  1373  1377   un
  1757  1374  1375   un
  1758  1374  1377   un
  1759  1374  1421   un
  1760  1375  1376    1
  1761  1375  1474   un
  1762  1377  1420   un
  1763  1378  1379   un
  1764  1378  1384   un
  1765  1378  1400   un
  1766  1378  1408    1
  1767  1378  1412    1
  1768  1378  1417   un
  1769  1378  1420   un
  1770  1379  1383   un
  1771  1380  1381   un
  1772  1380  1383   un
  1773  1380  1414   un
  1774  1381  1382    1
  1775  1381  1456   un
  1776  1383  1413   un
  1777  1384  1388   un
  1778  1385  1386   un
  1779  1385  1388   un
  1780  1385  1402   un
  1781  1386  1387    1
  1782  1386  1457   un
  1783  1388  1401   un
  1784  1389  1390   un
  1785  1389  1395   un
  1786  1389  1400   un
  1787  1389  1404    1
  1788  1389  1416    1
  1789  1389  1423   un
  1790  1389  1426   un
  1791  1390  1394   un
  1792  1391  1392   un
  1793  1391  1394   un
  1794  1391  1406   un
  1795  1392  1393    1
  1796  1392  1458   un
  1797  1394  1405   un
  1798  1395  1399   un
  1799  1396  1397   un
  1800  1396  1399   un
  1801  1396  1410   un
  1802  1397  1398    1
  1803  1397  1455   un
  1804  1399  1409   un
  1805  1400  1401   un
  1806  1400  1404    1
  1807  1400  1405   un
  1808  1400  1408    1
  1809  1400  1445   un
  1810  1400  1448   un
  1811  1402  1403    1
  1812  1402  1454   un
  1813  1406  1407    1
  1814  1406  1451   un
  1815  1410  1411    1
  1816  1410  1452   un
  1817  1414  1415    1
  1818  1414  1453   un
  1819  1418  1419    1
  1820  1418  1469   un
  1821  1421  1422    1
  1822  1421  1468   un
  1823  1424  1425    1
  1824  1424  1467   un
  1825  1427  1428    1
  1826  1427  1470   un
  1827  1429  1433   un
  1828  1430  1431   un
  1829  1430  1433   un
  1830  1430  1449   un
  1831  1431  1432    1
  1832  1431  1460   un
  1833  1433  1448   un
  1834  1435  1436    1
  1835  1435  1461   un
  1836  1438  1439    1
  1837  1438  1462   un
  1838  1440  1444   un
  1839  1441  1442   un
  1840  1441  1444   un
  1841  1441  1446   un
  1842  1442  1443    1
  1843  1442  1459   un
  1844  1444  1445   un
  1845  1446  1447    1
  1846  1446  1464   un
  1847  1449  1450    1
  1848  1449  1465   un
  1849  1475  1476   un
  1850  1475  1480    1
  1851  1475  1482   un
  1852  1475  1486    1
  1853  1475  1488   un
  1854  1475  1500   un
  1855  1475  1512   un
  1856  1475  1523   un
  1857  1475  1543   un
  1858  1475  1546    1
  1859  1475  1547   un
  1860  1475  1550    1
  1861  1476  1481   un
  1862  1477  1478   un
  1863  1477  1481   un
  1864  1477  1569   un
  1865  1478  1479    1
  1866  1478  1600   un
  1867  1480  1500    1
  1868  1480  1523    1
  1869  1481  1568   un
  1870  1482  1487   un
  1871  1483  1484   un
  1872  1483  1487   un
  1873  1483  1572   un
  1874  1484  1485    1
  1875  1484  1597   un
  1876  1486  1488    1
  1877  1486  1512    1
  1878  1487  1571   un
  1879  1488  1489   un
  1880  1488  1493    1
  1881  1488  1495   un
  1882  1488  1512   un
  1883  1488  1523   un
  1884  1488  1534   un
  1885  1488  1542    1
  1886  1488  1550    1
  1887  1488  1563   un
  1888  1488  1568   un
  1889  1489  1494   un
  1890  1490  1491   un
  1891  1490  1494   un
  1892  1490  1552   un
  1893  1491  1492    1
  1894  1491  1607   un
  1895  1493  1523    1
  1896  1493  1534    1
  1897  1494  1551   un
  1898  1495  1499   un
  1899  1496  1497   un
  1900  1496  1499   un
  1901  1496  1561   un
  1902  1497  1498    1
  1903  1497  1606   un
  1904  1499  1560   un
  1905  1500  1501   un
  1906  1500  1505    1
  1907  1500  1507   un
  1908  1500  1512   un
  1909  1500  1523   un
  1910  1500  1534   un
  1911  1500  1538    1
  1912  1500  1546    1
  1913  1500  1571   un
  1914  1500  1574   un
  1915  1501  1506   un
  1916  1502  1503   un
  1917  1502  1506   un
  1918  1502  1558   un
  1919  1503  1504    1
  1920  1503  1605   un
  1921  1505  1512    1
  1922  1505  1534    1
  1923  1506  1557   un
  1924  1507  1511   un
  1925  1508  1509   un
  1926  1508  1511   un
  1927  1508  1555   un
  1928  1509  1510    1
  1929  1509  1608   un
  1930  1511  1554   un
  1931  1512  1513   un
  1932  1512  1518   un
  1933  1512  1534   un
  1934  1512  1542    1
  1935  1512  1546    1
  1936  1512  1551   un
  1937  1512  1554   un
  1938  1513  1517   un
  1939  1514  1515   un
  1940  1514  1517   un
  1941  1514  1548   un
  1942  1515  1516    1
  1943  1515  1590   un
  1944  1517  1547   un
  1945  1518  1522   un
  1946  1519  1520   un
  1947  1519  1522   un
  1948  1519  1536   un
  1949  1520  1521    1
  1950  1520  1591   un
  1951  1522  1535   un
  1952  1523  1524   un
  1953  1523  1529   un
  1954  1523  1534   un
  1955  1523  1538    1
  1956  1523  1550    1
  1957  1523  1557   un
  1958  1523  1560   un
  1959  1524  1528   un
  1960  1525  1526   un
  1961  1525  1528   un
  1962  1525  1540   un
  1963  1526  1527    1
  1964  1526  1592   un
  1965  1528  1539   un
  1966  1529  1533   un
  1967  1530  1531   un
  1968  1530  1533   un
  1969  1530  1544   un
  1970  1531  1532    1
  1971  1531  1589   un
  1972  1533  1543   un
  1973  1534  1535   un
  1974  1534  1538    1
  1975  1534  1539   un
  1976  1534  1542    1
  1977  1534  1579   un
  1978  1534  1582   un
  1979  1536  1537    1
  1980  1536  1588   un
  1981  1540  1541    1
  1982  1540  1585   un
  1983  1544  1545    1
  1984  1544  1586   un
  1985  1548  1549    1
  1986  1548  1587   un
  1987  1552  1553    1
  1988  1552  1603   un
  1989  1555  1556    1
  1990  1555  1602   un
  1991  1558  1559    1
  1992  1558  1601   un
  1993  1561  1562    1
  1994  1561  1604   un
  1995  1563  1567   un
  1996  1564  1565   un
  1997  1564  1567   un
  1998  1564  1583   un
  1999  1565  1566    1
  2000  1565  1594   un
  2001  1567  1582   un
  2002  1569  1570    1
  2003  1569  1595   un
  2004  1572  1573    1
  2005  1572  1596   un
  2006  1574  1578   un
  2007  1575  1576   un
  2008  1575  1578   un
  2009  1575  1580   un
  2010  1576  1577    1
  2011  1576  1593   un
  2012  1578  1579   un
  2013  1580  1581    1
  2014  1580  1598   un
  2015  1583  1584    1
  2016  1583  1599   un
  2017  1609  1610   un
  2018  1609  1614    1
  2019  1609  1616   un
  2020  1609  1620    1
  2021  1609  1622   un
  2022  1609  1634   un
  2023  1609  1646   un
  2024  1609  1657   un
  2025  1609  1677   un
  2026  1609  1680    1
  2027  1609  1681   un
  2028  1609  1684    1
  2029  1610  1615   un
  2030  1611  1612   un
  2031  1611  1615   un
  2032  1611  1703   un
  2033  1612  1613    1
  2034  1612  1734   un
  2035  1614  1634    1
  2036  1614  1657    1
  2037  1615  1702   un
  2038  1616  1621   un
  2039  1617  1618   un
  2040  1617  1621   un
  2041  1617  1706   un
  2042  1618  1619    1
  2043  1618  1731   un
  2044  1620  1622    1
  2045  1620  1646    1
  2046  1621  1705   un
  2047  1622  1623   un
  2048  1622  1627    1
  2049  1622  1629   un
  2050  1622  1646   un
  2051  1622  1657   un
  2052  1622  1668   un
  2053  1622  1676    1
  2054  1622  1684    1
  2055  1622  1697   un
  2056  1622  1702   un
  2057  1623  1628   un
  2058  1624  1625   un
  2059  1624  1628   un
  2060  1624  1686   un
  2061  1625  1626    1
  2062  1625  1741   un
  2063  1627  1657    1
  2064  1627  1668    1
  2065  1628  1685   un
  2066  1629  1633   un
  2067  1630  1631   un
  2068  1630  1633   un
  2069  1630  1695   un
  2070  1631  1632    1
  2071  1631  1740   un
  2072  1633  1694   un
  2073  1634  1635   un
  2074  1634  1639    1
  2075  1634  1641   un
  2076  1634  1646   un
  2077  1634  1657   un
  2078  1634  1668   un
  2079  1634  1672    1
  2080  1634  1680    1
  2081  1634  1705   un
  2082  1634  1708   un
  2083  1635  1640   un
  2084  1636  1637   un
  2085  1636  1640   un
  2086  1636  1692   un
  2087  1637  1638    1
  2088  1637  1739   un
  2089  1639  1646    1
  2090  1639  1668    1
  2091  1640  1691   un
  2092  1641  1645   un
  2093  1642  1643   un
  2094  1642  1645   un
  2095  1642  1689   un
  2096  1643  1644    1
  2097  1643  1742   un
  2098  1645  1688   un
  2099  1646  1647   un
  2100  1646  1652   un
  2101  1646  1668   un
  2102  1646  1676    1
  2103  1646  1680    1
  2104  1646  1685   un
  2105  1646  1688   un
  2106  1647  1651   un
  2107  1648  1649   un
  2108  1648  1651   un
  2109  1648  1682   un
  2110  1649  1650    1
  2111  1649  1724   un
  2112  1651  1681   un
  2113  1652  1656   un
  2114  1653  1654   un
  2115  1653  1656   un
  2116  1653  1670   un
  2117  1654  1655    1
  2118  1654  1725   un
  2119  1656  1669   un
  2120  1657  1658   un
  2121  1657  1663   un
  2122  1657  1668   un
  2123  1657  1672    1
  2124  1657  1684    1
  2125  1657  1691   un
  2126  1657  1694   un
  2127  1658  1662   un
  2128  1659  1660   un
  2129  1659  1662   un
  2130  1659  1674   un
  2131  1660  1661    1
  2132  1660  1726   un
  2133  1662  1673   un
  2134  1663  1667   un
  2135  1664  1665   un
  2136  1664  1667   un
  2137  1664  1678   un
  2138  1665  1666    1
  2139  1665  1723   un
  2140  1667  1677   un
  2141  1668  1669   un
  2142  1668  1672    1
  2143  1668  1673   un
  2144  1668  1676    1
  2145  1668  1713   un
  2146  1668  1716   un
  2147  1670  1671    1
  2148  1670  1722   un
  2149  1674  1675    1
  2150  1674  1719   un
  2151  1678  1679    1
  2152  1678  1720   un
  2153  1682  1683    1
  2154  1682  1721   un
  2155  1686  1687    1
  2156  1686  1737   un
  2157  1689  1690    1
  2158  1689  1736   un
  2159  1692  1693    1
  2160  1692  1735   un
  2161  1695  1696    1
  2162  1695  1738   un
  2163  1697  1701   un
  2164  1698  1699   un
  2165  1698  1701   un
  2166  1698  1717   un
  2167  1699  1700    1
  2168  1699  1728   un
  2169  1701  1716   un
  2170  1703  1704    1
  2171  1703  1729   un
  2172  1706  1707    1
  2173  1706  1730   un
  2174  1708  1712   un
  2175  1709  1710   un
  2176  1709  1712   un
  2177  1709  1714   un
  2178  1710  1711    1
  2179  1710  1727   un
  2180  1712  1713   un
  2181  1714  1715    1
  2182  1714  1732   un
  2183  1717  1718    1
  2184  1717  1733   un
  2185  1743  1744   un
  2186  1743  1748    1
  2187  1743  1750   un
  2188  1743  1754    1
  2189  1743  1756   un
  2190  1743  1768   un
  2191  1743  1780   un
  2192  1743  1791   un
  2193  1743  1811   un
  2194  1743  1814    1
  2195  1743  1815   un
  2196  1743  1818    1
  2197  1744  1749   un
  2198  1745  1746   un
  2199  1745  1749   un
  2200  1745  1837   un
  2201  1746  1747    1
  2202  1746  1868   un
  2203  1748  1768    1
  2204  1748  1791    1
  2205  1749  1836   un
  2206  1750  1755   un
  2207  1751  1752   un
  2208  1751  1755   un
  2209  1751  1840   un
  2210  1752  1753    1
  2211  1752  1865   un
  2212  1754  1756    1
  2213  1754  1780    1
  2214  1755  1839   un
  2215  1756  1757   un
  2216  1756  1761    1
  2217  1756  1763   un
  2218  1756  1780   un
  2219  1756  1791   un
  2220  1756  1802   un
  2221  1756  1810    1
  2222  1756  1818    1
  2223  1756  1831   un
  2224  1756  1836   un
  2225  1757  1762   un
  2226  1758  1759   un
  2227  1758  1762   un
  2228  1758  1820   un
  2229  1759  1760    1
  2230  1759  1875   un
  2231  1761  1791    1
  2232  1761  1802    1
  2233  1762  1819   un
  2234  1763  1767   un
  2235  1764  1765   un
  2236  1764  1767   un
  2237  1764  1829   un
  2238  1765  1766    1
  2239  1765  1874   un
  2240  1767  1828   un
  2241  1768  1769   un
  2242  1768  1773    1
  2243  1768  1775   un
  2244  1768  1780   un
  2245  1768  1791   un
  2246  1768  1802   un
  2247  1768  1806    1
  2248  1768  1814    1
  2249  1768  1839   un
  2250  1768  1842   un
  2251  1769  1774   un
  2252  1770  1771   un
  2253  1770  1774   un
  2254  1770  1826   un
  2255  1771  1772    1
  2256  1771  1873   un
  2257  1773  1780    1
  2258  1773  1802    1
  2259  1774  1825   un
  2260  1775  1779   un
  2261  1776  1777   un
  2262  1776  1779   un
  2263  1776  1823   un
  2264  1777  1778    1
  2265  1777  1876   un
  2266  1779  1822   un
  2267  1780  1781   un
  2268  1780  1786   un
  2269  1780  1802   un
  2270  1780  1810    1
  2271  1780  1814    1
  2272  1780  1819   un
  2273  1780  1822   un
  2274  1781  1785   un
  2275  1782  1783   un
  2276  1782  1785   un
  2277  1782  1816   un
  2278  1783  1784    1
  2279  1783  1858   un
  2280  1785  1815   un
  2281  1786  1790   un
  2282  1787  1788   un
  2283  1787  1790   un
  2284  1787  1804   un
  2285  1788  1789    1
  2286  1788  1859   un
  2287  1790  1803   un
  2288  1791  1792   un
  2289  1791  1797   un
  2290  1791  1802   un
  2291  1791  1806    1
  2292  1791  1818    1
  2293  1791  1825   un
  2294  1791  1828   un
  2295  1792  1796   un
  2296  1793  1794   un
  2297  1793  1796   un
  2298  1793  1808   un
  2299  1794  1795    1
  2300  1794  1860   un
  2301  1796  1807   un
  2302  1797  1801   un
  2303  1798  1799   un
  2304  1798  1801   un
  2305  1798  1812   un
  2306  1799  1800    1
  2307  1799  1857   un
  2308  1801  1811   un
  2309  1802  1803   un
  2310  1802  1806    1
  2311  1802  1807   un
  2312  1802  1810    1
  2313  1802  1847   un
  2314  1802  1850   un
  2315  1804  1805    1
  2316  1804  1856   un
  2317  1808  1809    1
  2318  1808  1853   un
  2319  1812  1813    1
  2320  1812  1854   un
  2321  1816  1817    1
  2322  1816  1855   un
  2323  1820  1821    1
  2324  1820  1871   un
  2325  1823  1824    1
  2326  1823  1870   un
  2327  1826  1827    1
  2328  1826  1869   un
  2329  1829  1830    1
  2330  1829  1872   un
  2331  1831  1835   un
  2332  1832  1833   un
  2333  1832  1835   un
  2334  1832  1851   un
  2335  1833  1834    1
  2336  1833  1862   un
  2337  1835  1850   un
  2338  1837  1838    1
  2339  1837  1863   un
  2340  1840  1841    1
  2341  1840  1864   un
  2342  1842  1846   un
  2343  1843  1844   un
  2344  1843  1846   un
  2345  1843  1848   un
  2346  1844  1845    1
  2347  1844  1861   un
  2348  1846  1847   un
  2349  1848  1849    1
  2350  1848  1866   un
  2351  1851  1852    1
  2352  1851  1867   un
  2353  1877  1878   un
  2354  1877  1882    1
  2355  1877  1884   un
  2356  1877  1888    1
  2357  1877  1890   un
  2358  1877  1902   un
  2359  1877  1914   un
  2360  1877  1925   un
  2361  1877  1945   un
  2362  1877  1948    1
  2363  1877  1949   un
  2364  1877  1952    1
  2365  1878  1883   un
  2366  1879  1880   un
  2367  1879  1883   un
  2368  1879  1971   un
  2369  1880  1881    1
  2370  1880  2002   un
  2371  1882  1902    1
  2372  1882  1925    1
  2373  1883  1970   un
  2374  1884  1889   un
  2375  1885  1886   un
  2376  1885  1889   un
  2377  1885  1974   un
  2378  1886  1887    1
  2379  1886  1999   un
  2380  1888  1890    1
  2381  1888  1914    1
  2382  1889  1973   un
  2383  1890  1891   un
  2384  1890  1895    1
  2385  1890  1897   un
  2386  1890  1914   un
  2387  1890  1925   un
  2388  1890  1936   un
  2389  1890  1944    1
  2390  1890  1952    1
  2391  1890  1965   un
  2392  1890  1970   un
  2393  1891  1896   un
  2394  1892  1893   un
  2395  1892  1896   un
  2396  1892  1954   un
  2397  1893  1894    1
  2398  1893  2009   un
  2399  1895  1925    1
  2400  1895  1936    1
  2401  1896  1953   un
  2402  1897  1901   un
  2403  1898  1899   un
  2404  1898  1901   un
  2405  1898  1963   un
  2406  1899  1900    1
  2407  1899  2008   un
  2408  1901  1962   un
  2409  1902  1903   un
  2410  1902  1907    1
  2411  1902  1909   un
  2412  1902  1914   un
  2413  1902  1925   un
  2414  1902  1936   un
  2415  1902  1940    1
  2416  1902  1948    1
  2417  1902  1973   un
  2418  1902  1976   un
  2419  1903  1908   un
  2420  1904  1905   un
  2421  1904  1908   un
  2422  1904  1960   un
  2423  1905  1906    1
  2424  1905  2007   un
  2425  1907  1914    1
  2426  1907  1936    1
  2427  1908  1959   un
  2428  1909  1913   un
  2429  1910  1911   un
  2430  1910  1913   un
  2431  1910  1957   un
  2432  1911  1912    1
  2433  1911  2010   un
  2434  1913  1956   un
  2435  1914  1915   un
  2436  1914  1920   un
  2437  1914  1936   un
  2438  1914  1944    1
  2439  1914  1948    1
  2440  1914  1953   un
  2441  1914  1956   un
  2442  1915  1919   un
  2443  1916  1917   un
  2444  1916  1919   un
  2445  1916  1950   un
  2446  1917  1918    1
  2447  1917  1992   un
  2448  1919  1949   un
  2449  1920  1924   un
  2450  1921  1922   un
  2451  1921  1924   un
  2452  1921  1938   un
  2453  1922  1923    1
  2454  1922  1993   un
  2455  1924  1937   un
  2456  1925  1926   un
  2457  1925  1931   un
  2458  1925  1936   un
  2459  1925  1940    1
  2460  1925  1952    1
  2461  1925  1959   un
  2462  1925  1962   un
  2463  1926  1930   un
  2464  1927  1928   un
  2465  1927  1930   un
  2466  1927  1942   un
  2467  1928  1929    1
  2468  1928  1994   un
  2469  1930  1941   un
  2470  1931  1935   un
  2471  1932  1933   un
  2472  1932  1935   un
  2473  1932  1946   un
  2474  1933  1934    1
  2475  1933  1991   un
  2476  1935  1945   un
  2477  1936  1937   un
  2478  1936  1940    1
  2479  1936  1941   un
  2480  1936  1944    1
  2481  1936  1981   un
  2482  1936  1984   un
  2483  1938  1939    1
  2484  1938  1990   un
  2485  1942  1943    1
  2486  1942  1987   un
  2487  1946  1947    1
  2488  1946  1988   un
  2489  1950  1951    1
  2490  1950  1989   un
  2491  1954  1955    1
  2492  1954  2005   un
  2493  1957  1958    1
  2494  1957  2004   un
  2495  1960  1961    1
  2496  1960  2003   un
  2497  1963  1964    1
  2498  1963  2006   un
  2499  1965  1969   un
  2500  1966  1967   un
  2501  1966  1969   un
  2502  1966  1985   un
  2503  1967  1968    1
  2504  1967  1996   un
  2505  1969  1984   un
  2506  1971  1972    1
  2507  1971  1997   un
  2508  1974  1975    1
  2509  1974  1998   un
  2510  1976  1980   un
  2511  1977  1978   un
  2512  1977  1980   un
  2513  1977  1982   un
  2514  1978  1979    1
  2515  1978  1995   un
  2516  1980  1981   un
  2517  1982  1983    1
  2518  1982  2000   un
  2519  1985  1986    1
  2520  1985  2001   un
  2521  2011  2012   un
  2522  2011  2016    1
  2523  2011  2018   un
  2524  2011  2022    1
  2525  2011  2024   un
  2526  2011  2036   un
  2527  2011  2048   un
  2528  2011  2059   un
  2529  2011  2079   un
  2530  2011  2082    1
  2531  2011  2083   un
  2532  2011  2086    1
  2533  2012  2017   un
  2534  2013  2014   un
  2535  2013  2017   un
  2536  2013  2105   un
  2537  2014  2015    1
  2538  2014  2136   un
  2539  2016  2036    1
  2540  2016  2059    1
  2541  2017  2104   un
  2542  2018  2023   un
  2543  2019  2020   un
  2544  2019  2023   un
  2545  2019  2108   un
  2546  2020  2021    1
  2547  2020  2133   un
  2548  2022  2024    1
  2549  2022  2048    1
  2550  2023  2107   un
  2551  2024  2025   un
  2552  2024  2029    1
  2553  2024  2031   un
  2554  2024  2048   un
  2555  2024  2059   un
  2556  2024  2070   un
  2557  2024  2078    1
  2558  2024  2086    1
  2559  2024  2099   un
  2560  2024  2104   un
  2561  2025  2030   un
  2562  2026  2027   un
  2563  2026  2030   un
  2564  2026  2088   un
  2565  2027  2028    1
  2566  2027  2143   un
  2567  2029  2059    1
  2568  2029  2070    1
  2569  2030  2087   un
  2570  2031  2035   un
  2571  2032  2033   un
  2572  2032  2035   un
  2573  2032  2097   un
  2574  2033  2034    1
  2575  2033  2142   un
  2576  2035  2096   un
  2577  2036  2037   un
  2578  2036  2041    1
  2579  2036  2043   un
  2580  2036  2048   un
  2581  2036  2059   un
  2582  2036  2070   un
  2583  2036  2074    1
  2584  2036  2082    1
  2585  2036  2107   un
  2586  2036  2110   un
  2587  2037  2042   un
  2588  2038  2039   un
  2589  2038  2042   un
  2590  2038  2094   un
  2591  2039  2040    1
  2592  2039  2141   un
  2593  2041  2048    1
  2594  2041  2070    1
  2595  2042  2093   un
  2596  2043  2047   un
  2597  2044  2045   un
  2598  2044  2047   un
  2599  2044  2091   un
  2600  2045  2046    1
  2601  2045  2144   un
  2602  2047  2090   un
  2603  2048  2049   un
  2604  2048  2054   un
  2605  2048  2070   un
  2606  2048  2078    1
  2607  2048  2082    1
  2608  2048  2087   un
  2609  2048  2090   un
  2610  2049  2053   un
  2611  2050  2051   un
  2612  2050  2053   un
  2613  2050  2084   un
  2614  2051  2052    1
  2615  2051  2126   un
  2616  2053  2083   un
  2617  2054  2058   un
  2618  2055  2056   un
  2619  2055  2058   un
  2620  2055  2072   un
  2621  2056  2057    1
  2622  2056  2127   un
  2623  2058  2071   un
  2624  2059  2060   un
  2625  2059  2065   un
  2626  2059  2070   un
  2627  2059  2074    1
  2628  2059  2086    1
  2629  2059  2093   un
  2630  2059  2096   un
  2631  2060  2064   un
  2632  2061  2062   un
  2633  2061  2064   un
  2634  2061  2076   un
  2635  2062  2063    1
  2636  2062  2128   un
  2637  2064  2075   un
  2638  2065  2069   un
  2639  2066  2067   un
  2640  2066  2069   un
  2641  2066  2080   un
  2642  2067  2068    1
  2643  2067  2125   un
  2644  2069  2079   un
  2645  2070  2071   un
  2646  2070  2074    1
  2647  2070  2075   un
  2648  2070  2078    1
  2649  2070  2115   un
  2650  2070  2118   un
  2651  2072  2073    1
  2652  2072  2124   un
  2653  2076  2077    1
  2654  2076  2121   un
  2655  2080  2081    1
  2656  2080  2122   un
  2657  2084  2085    1
  2658  2084  2123   un
  2659  2088  2089    1
  2660  2088  2139   un
  2661  2091  2092    1
  2662  2091  2138   un
  2663  2094  2095    1
  2664  2094  2137   un
  2665  2097  2098    1
  2666  2097  2140   un
  2667  2099  2103   un
  2668  2100  2101   un
  2669  2100  2103   un
  2670  2100  2119   un
  2671  2101  2102    1
  2672  2101  2130   un
  2673  2103  2118   un
  2674  2105  2106    1
  2675  2105  2131   un
  2676  2108  2109    1
  2677  2108  2132   un
  2678  2110  2114   un
  2679  2111  2112   un
  2680  2111  2114   un
  2681  2111  2116   un
  2682  2112  2113    1
  2683  2112  2129   un
  2684  2114  2115   un
  2685  2116  2117    1
  2686  2116  2134   un
  2687  2119  2120    1
  2688  2119  2135   un
  2689  2145  2146   un
  2690  2145  2150    1
  2691  2145  2152   un
  2692  2145  2156    1
  2693  2145  2158   un
  2694  2145  2170   un
  2695  2145  2182   un
  2696  2145  2193   un
  2697  2145  2213   un
  2698  2145  2216    1
  2699  2145  2217   un
  2700  2145  2220    1
  2701  2146  2151   un
  2702  2147  2148   un
  2703  2147  2151   un
  2704  2147  2239   un
  2705  2148  2149    1
  2706  2148  2270   un
  2707  2150  2170    1
  2708  2150  2193    1
  2709  2151  2238   un
  2710  2152  2157   un
  2711  2153  2154   un
  2712  2153  2157   un
  2713  2153  2242   un
  2714  2154  2155    1
  2715  2154  2267   un
  2716  2156  2158    1
  2717  2156  2182    1
  2718  2157  2241   un
  2719  2158  2159   un
  2720  2158  2163    1
  2721  2158  2165   un
  2722  2158  2182   un
  2723  2158  2193   un
  2724  2158  2204   un
  2725  2158  2212    1
  2726  2158  2220    1
  2727  2158  2233   un
  2728  2158  2238   un
  2729  2159  2164   un
  2730  2160  2161   un
  2731  2160  2164   un
  2732  2160  2222   un
  2733  2161  2162    1
  2734  2161  2277   un
  2735  2163  2193    1
  2736  2163  2204    1
  2737  2164  2221   un
  2738  2165  2169   un
  2739  2166  2167   un
  2740  2166  2169   un
  2741  2166  2231   un
  2742  2167  2168    1
  2743  2167  2276   un
  2744  2169  2230   un
  2745  2170  2171   un
  2746  2170  2175    1
  2747  2170  2177   un
  2748  2170  2182   un
  2749  2170  2193   un
  2750  2170  2204   un
  2751  2170  2208    1
  2752  2170  2216    1
  2753  2170  2241   un
  2754  2170  2244   un
  2755  2171  2176   un
  2756  2172  2173   un
  2757  2172  2176   un
  2758  2172  2228   un
  2759  2173  2174    1
  2760  2173  2275   un
  2761  2175  2182    1
  2762  2175  2204    1
  2763  2176  2227   un
  2764  2177  2181   un
  2765  2178  2179   un
  2766  2178  2181   un
  2767  2178  2225   un
  2768  2179  2180    1
  2769  2179  2278   un
  2770  2181  2224   un
  2771  2182  2183   un
  2772  2182  2188   un
  2773  2182  2204   un
  2774  2182  2212    1
  2775  2182  2216    1
  2776  2182  2221   un
  2777  2182  2224   un
  2778  2183  2187   un
  2779  2184  2185   un
  2780  2184  2187   un
  2781  2184  2218   un
  2782  2185  2186    1
  2783  2185  2260   un
  2784  2187  2217   un
  2785  2188  2192   un
  2786  2189  2190   un
  2787  2189  2192   un
  2788  2189  2206   un
  2789  2190  2191    1
  2790  2190  2261   un
  2791  2192  2205   un
  2792  2193  2194   un
  2793  2193  2199   un
  2794  2193  2204   un
  2795  2193  2208    1
  2796  2193  2220    1
  2797  2193  2227   un
  2798  2193  2230   un
  2799  2194  2198   un
  2800  2195  2196   un
  2801  2195  2198   un
  2802  2195  2210   un
  2803  2196  2197    1
  2804  2196  2262   un
  2805  2198  2209   un
  2806  2199  2203   un
  2807  2200  2201   un
  2808  2200  2203   un
  2809  2200  2214   un
  2810  2201  2202    1
  2811  2201  2259   un
  2812  2203  2213   un
  2813  2204  2205   un
  2814  2204  2208    1
  2815  2204  2209   un
  2816  2204  2212    1
  2817  2204  2249   un
  2818  2204  2252   un
  2819  2206  2207    1
  2820  2206  2258   un
  2821  2210  2211    1
  2822  2210  2255   un
  2823  2214  2215    1
  2824  2214  2256   un
  2825  2218  2219    1
  2826  2218  2257   un
  2827  2222  2223    1
  2828  2222  2273   un
  2829  2225  2226    1
  2830  2225  2272   un
  2831  2228  2229    1
  2832  2228  2271   un
  2833  2231  2232    1
  2834  2231  2274   un
  2835  2233  2237   un
  2836  2234  2235   un
  2837  2234  2237   un
  2838  2234  2253   un
  2839  2235  2236    1
  2840  2235  2264   un
  2841  2237  2252   un
  2842  2239  2240    1
  2843  2239  2265   un
  2844  2242  2243    1
  2845  2242  2266   un
  2846  2244  2248   un
  2847  2245  2246   un
  2848  2245  2248   un
  2849  2245  2250   un
  2850  2246  2247    1
  2851  2246  2263   un
  2852  2248  2249   un
  2853  2250  2251    1
  2854  2250  2268   un
  2855  2253  2254    1
  2856  2253  2269   un
  2857  2279  2280   un
  2858  2279  2284    1
  2859  2279  2286   un
  2860  2279  2290    1
  2861  2279  2292   un
  2862  2279  2304   un
  2863  2279  2316   un
  2864  2279  2327   un
  2865  2279  2347   un
  2866  2279  2350    1
  2867  2279  2351   un
  2868  2279  2354    1
  2869  2280  2285   un
  2870  2281  2282   un
  2871  2281  2285   un
  2872  2281  2373   un
  2873  2282  2283    1
  2874  2282  2404   un
  2875  2284  2304    1
  2876  2284  2327    1
  2877  2285  2372   un
  2878  2286  2291   un
  2879  2287  2288   un
  2880  2287  2291   un
  2881  2287  2376   un
  2882  2288  2289    1
  2883  2288  2401   un
  2884  2290  2292    1
  2885  2290  2316    1
  2886  2291  2375   un
  2887  2292  2293   un
  2888  2292  2297    1
  2889  2292  2299   un
  2890  2292  2316   un
  2891  2292  2327   un
  2892  2292  2338   un
  2893  2292  2346    1
  2894  2292  2354    1
  2895  2292  2367   un
  2896  2292  2372   un
  2897  2293  2298   un
  2898  2294  2295   un
  2899  2294  2298   un
  2900  2294  2356   un
  2901  2295  2296    1
  2902  2295  2411   un
  2903  2297  2327    1
  2904  2297  2338    1
  2905  2298  2355   un
  2906  2299  2303   un
  2907  2300  2301   un
  2908  2300  2303   un
  2909  2300  2365   un
  2910  2301  2302    1
  2911  2301  2410   un
  2912  2303  2364   un
  2913  2304  2305   un
  2914  2304  2309    1
  2915  2304  2311   un
  2916  2304  2316   un
  2917  2304  2327   un
  2918  2304  2338   un
  2919  2304  2342    1
  2920  2304  2350    1
  2921  2304  2375   un
  2922  2304  2378   un
  2923  2305  2310   un
  2924  2306  2307   un
  2925  2306  2310   un
  2926  2306  2362   un
  2927  2307  2308    1
  2928  2307  2409   un
  2929  2309  2316    1
  2930  2309  2338    1
  2931  2310  2361   un
  2932  2311  2315   un
  2933  2312  2313   un
  2934  2312  2315   un
  2935  2312  2359   un
  2936  2313  2314    1
  2937  2313  2412   un
  2938  2315  2358   un
  2939  2316  2317   un
  2940  2316  2322   un
  2941  2316  2338   un
  2942  2316  2346    1
  2943  2316  2350    1
  2944  2316  2355   un
  2945  2316  2358   un
  2946  2317  2321   un
  2947  2318  2319   un
  2948  2318  2321   un
  2949  2318  2352   un
  2950  2319  2320    1
  2951  2319  2394   un
  2952  2321  2351   un
  2953  2322  2326   un
  2954  2323  2324   un
  2955  2323  2326   un
  2956  2323  2340   un
  2957  2324  2325    1
  2958  2324  2395   un
  2959  2326  2339   un
  2960  2327  2328   un
  2961  2327  2333   un
  2962  2327  2338   un
  2963  2327  2342    1
  2964  2327  2354    1
  2965  2327  2361   un
  2966  2327  2364   un
  2967  2328  2332   un
  2968  2329  2330   un
  2969  2329  2332   un
  2970  2329  2344   un
  2971  2330  2331    1
  2972  2330  2396   un
  2973  2332  2343   un
  2974  2333  2337   un
  2975  2334  2335   un
  2976  2334  2337   un
  2977  2334  2348   un
  2978  2335  2336    1
  2979  2335  2393   un
  2980  2337  2347   un
  2981  2338  2339   un
  2982  2338  2342    1
  2983  2338  2343   un
  2984  2338  2346    1
  2985  2338  2383   un
  2986  2338  2386   un
  2987  2340  2341    1
  2988  2340  2392   un
  2989  2344  2345    1
  2990  2344  2389   un
  2991  2348  2349    1
  2992  2348  2390   un
  2993  2352  2353    1
  2994  2352  2391   un
  2995  2356  2357    1
  2996  2356  2407   un
  2997  2359  2360    1
  2998  2359  2406   un
  2999  2362  2363    1
  3000  2362  2405   un
  3001  2365  2366    1
  3002  2365  2408   un
  3003  2367  2371   un
  3004  2368  2369   un
  3005  2368  2371   un
  3006  2368  2387   un
  3007  2369  2370    1
  3008  2369  2398   un
  3009  2371  2386   un
  3010  2373  2374    1
  3011  2373  2399   un
  3012  2376  2377    1
  3013  2376  2400   un
  3014  2378  2382   un
  3015  2379  2380   un
  3016  2379  2382   un
  3017  2379  2384   un
  3018  2380  2381    1
  3019  2380  2397   un
  3020  2382  2383   un
  3021  2384  2385    1
  3022  2384  2402   un
  3023  2387  2388    1
  3024  2387  2403   un
  3025  2413  2414   un
  3026  2413  2418    1
  3027  2413  2420   un
  3028  2413  2424    1
  3029  2413  2426   un
  3030  2413  2438   un
  3031  2413  2450   un
  3032  2413  2461   un
  3033  2413  2481   un
  3034  2413  2484    1
  3035  2413  2485   un
  3036  2413  2488    1
  3037  2414  2419   un
  3038  2415  2416   un
  3039  2415  2419   un
  3040  2415  2507   un
  3041  2416  2417    1
  3042  2416  2538   un
  3043  2418  2438    1
  3044  2418  2461    1
  3045  2419  2506   un
  3046  2420  2425   un
  3047  2421  2422   un
  3048  2421  2425   un
  3049  2421  2510   un
  3050  2422  2423    1
  3051  2422  2535   un
  3052  2424  2426    1
  3053  2424  2450    1
  3054  2425  2509   un
  3055  2426  2427   un
  3056  2426  2431    1
  3057  2426  2433   un
  3058  2426  2450   un
  3059  2426  2461   un
  3060  2426  2472   un
  3061  2426  2480    1
  3062  2426  2488    1
  3063  2426  2501   un
  3064  2426  2506   un
  3065  2427  2432   un
  3066  2428  2429   un
  3067  2428  2432   un
  3068  2428  2490   un
  3069  2429  2430    1
  3070  2429  2545   un
  3071  2431  2461    1
  3072  2431  2472    1
  3073  2432  2489   un
  3074  2433  2437   un
  3075  2434  2435   un
  3076  2434  2437   un
  3077  2434  2499   un
  3078  2435  2436    1
  3079  2435  2544   un
  3080  2437  2498   un
  3081  2438  2439   un
  3082  2438  2443    1
  3083  2438  2445   un
  3084  2438  2450   un
  3085  2438  2461   un
  3086  2438  2472   un
  3087  2438  2476    1
  3088  2438  2484    1
  3089  2438  2509   un
  3090  2438  2512   un
  3091  2439  2444   un
  3092  2440  2441   un
  3093  2440  2444   un
  3094  2440  2496   un
  3095  2441  2442    1
  3096  2441  2543   un
  3097  2443  2450    1
  3098  2443  2472    1
  3099  2444  2495   un
  3100  2445  2449   un
  3101  2446  2447   un
  3102  2446  2449   un
  3103  2446  2493   un
  3104  2447  2448    1
  3105  2447  2546   un
  3106  2449  2492   un
  3107  2450  2451   un
  3108  2450  2456   un
  3109  2450  2472   un
  3110  2450  2480    1
  3111  2450  2484    1
  3112  2450  2489   un
  3113  2450  2492   un
  3114  2451  2455   un
  3115  2452  2453   un
  3116  2452  2455   un
  3117  2452  2486   un
  3118  2453  2454    1
  3119  2453  2528   un
  3120  2455  2485   un
  3121  2456  2460   un
  3122  2457  2458   un
  3123  2457  2460   un
  3124  2457  2474   un
  3125  2458  2459    1
  3126  2458  2529   un
  3127  2460  2473   un
  3128  2461  2462   un
  3129  2461  2467   un
  3130  2461  2472   un
  3131  2461  2476    1
  3132  2461  2488    1
  3133  2461  2495   un
  3134  2461  2498   un
  3135  2462  2466   un
  3136  2463  2464   un
  3137  2463  2466   un
  3138  2463  2478   un
  3139  2464  2465    1
  3140  2464  2530   un
  3141  2466  2477   un
  3142  2467  2471   un
  3143  2468  2469   un
  3144  2468  2471   un
  3145  2468  2482   un
  3146  2469  2470    1
  3147  2469  2527   un
  3148  2471  2481   un
  3149  2472  2473   un
  3150  2472  2476    1
  3151  2472  2477   un
  3152  2472  2480    1
  3153  2472  2517   un
  3154  2472  2520   un
  3155  2474  2475    1
  3156  2474  2526   un
  3157  2478  2479    1
  3158  2478  2523   un
  3159  2482  2483    1
  3160  2482  2524   un
  3161  2486  2487    1
  3162  2486  2525   un
  3163  2490  2491    1
  3164  2490  2541   un
  3165  2493  2494    1
  3166  2493  2540   un
  3167  2496  2497    1
  3168  2496  2539   un
  3169  2499  2500    1
  3170  2499  2542   un
  3171  2501  2505   un
  3172  2502  2503   un
  3173  2502  2505   un
  3174  2502  2521   un
  3175  2503  2504    1
  3176  2503  2532   un
  3177  2505  2520   un
  3178  2507  2508    1
  3179  2507  2533   un
  3180  2510  2511    1
  3181  2510  2534   un
  3182  2512  2516   un
  3183  2513  2514   un
  3184  2513  2516   un
  3185  2513  2518   un
  3186  2514  2515    1
  3187  2514  2531   un
  3188  2516  2517   un
  3189  2518  2519    1
  3190  2518  2536   un
  3191  2521  2522    1
  3192  2521  2537   un
  3193  2547  2548   un
  3194  2547  2552    1
  3195  2547  2554   un
  3196  2547  2558    1
  3197  2547  2560   un
  3198  2547  2572   un
  3199  2547  2584   un
  3200  2547  2595   un
  3201  2547  2615   un
  3202  2547  2618    1
  3203  2547  2619   un
  3204  2547  2622    1
  3205  2548  2553   un
  3206  2549  2550   un
  3207  2549  2553   un
  3208  2549  2641   un
  3209  2550  2551    1
  3210  2550  2672   un
  3211  2552  2572    1
  3212  2552  2595    1
  3213  2553  2640   un
  3214  2554  2559   un
  3215  2555  2556   un
  3216  2555  2559   un
  3217  2555  2644   un
  3218  2556  2557    1
  3219  2556  2669   un
  3220  2558  2560    1
  3221  2558  2584    1
  3222  2559  2643   un
  3223  2560  2561   un
  3224  2560  2565    1
  3225  2560  2567   un
  3226  2560  2584   un
  3227  2560  2595   un
  3228  2560  2606   un
  3229  2560  2614    1
  3230  2560  2622    1
  3231  2560  2635   un
  3232  2560  2640   un
  3233  2561  2566   un
  3234  2562  2563   un
  3235  2562  2566   un
  3236  2562  2624   un
  3237  2563  2564    1
  3238  2563  2679   un
  3239  2565  2595    1
  3240  2565  2606    1
  3241  2566  2623   un
  3242  2567  2571   un
  3243  2568  2569   un
  3244  2568  2571   un
  3245  2568  2633   un
  3246  2569  2570    1
  3247  2569  2678   un
  3248  2571  2632   un
  3249  2572  2573   un
  3250  2572  2577    1
  3251  2572  2579   un
  3252  2572  2584   un
  3253  2572  2595   un
  3254  2572  2606   un
  3255  2572  2610    1
  3256  2572  2618    1
  3257  2572  2643   un
  3258  2572  2646   un
  3259  2573  2578   un
  3260  2574  2575   un
  3261  2574  2578   un
  3262  2574  2630   un
  3263  2575  2576    1
  3264  2575  2677   un
  3265  2577  2584    1
  3266  2577  2606    1
  3267  2578  2629   un
  3268  2579  2583   un
  3269  2580  2581   un
  3270  2580  2583   un
  3271  2580  2627   un
  3272  2581  2582    1
  3273  2581  2680   un
  3274  2583  2626   un
  3275  2584  2585   un
  3276  2584  2590   un
  3277  2584  2606   un
  3278  2584  2614    1
  3279  2584  2618    1
  3280  2584  2623   un
  3281  2584  2626   un
  3282  2585  2589   un
  3283  2586  2587   un
  3284  2586  2589   un
  3285  2586  2620   un
  3286  2587  2588    1
  3287  2587  2662   un
  3288  2589  2619   un
  3289  2590  2594   un
  3290  2591  2592   un
  3291  2591  2594   un
  3292  2591  2608   un
  3293  2592  2593    1
  3294  2592  2663   un
  3295  2594  2607   un
  3296  2595  2596   un
  3297  2595  2601   un
  3298  2595  2606   un
  3299  2595  2610    1
  3300  2595  2622    1
  3301  2595  2629   un
  3302  2595  2632   un
  3303  2596  2600   un
  3304  2597  2598   un
  3305  2597  2600   un
  3306  2597  2612   un
  3307  2598  2599    1
  3308  2598  2664   un
  3309  2600  2611   un
  3310  2601  2605   un
  3311  2602  2603   un
  3312  2602  2605   un
  3313  2602  2616   un
  3314  2603  2604    1
  3315  2603  2661   un
  3316  2605  2615   un
  3317  2606  2607   un
  3318  2606  2610    1
  3319  2606  2611   un
  3320  2606  2614    1
  3321  2606  2651   un
  3322  2606  2654   un
  3323  2608  2609    1
  3324  2608  2660   un
  3325  2612  2613    1
  3326  2612  2657   un
  3327  2616  2617    1
  3328  2616  2658   un
  3329  2620  2621    1
  3330  2620  2659   un
  3331  2624  2625    1
  3332  2624  2675   un
  3333  2627  2628    1
  3334  2627  2674   un
  3335  2630  2631    1
  3336  2630  2673   un
  3337  2633  2634    1
  3338  2633  2676   un
  3339  2635  2639   un
  3340  2636  2637   un
  3341  2636  2639   un
  3342  2636  2655   un
  3343  2637  2638    1
  3344  2637  2666   un
  3345  2639  2654   un
  3346  2641  2642    1
  3347  2641  2667   un
  3348  2644  2645    1
  3349  2644  2668   un
  3350  2646  2650   un
  3351  2647  2648   un
  3352  2647  2650   un
  3353  2647  2652   un
  3354  2648  2649    1
  3355  2648  2665   un
  3356  2650  2651   un
  3357  2652  2653    1
  3358  2652  2670   un
  3359  2655  2656    1
  3360  2655  2671   un
  3361  2681  2682   un
  3362  2681  2686    1
  3363  2681  2688   un
  3364  2681  2692    1
  3365  2681  2694   un
  3366  2681  2706   un
  3367  2681  2718   un
  3368  2681  2729   un
  3369  2681  2749   un
  3370  2681  2752    1
  3371  2681  2753   un
  3372  2681  2756    1
  3373  2682  2687   un
  3374  2683  2684   un
  3375  2683  2687   un
  3376  2683  2775   un
  3377  2684  2685    1
  3378  2684  2806   un
  3379  2686  2706    1
  3380  2686  2729    1
  3381  2687  2774   un
  3382  2688  2693   un
  3383  2689  2690   un
  3384  2689  2693   un
  3385  2689  2778   un
  3386  2690  2691    1
  3387  2690  2803   un
  3388  2692  2694    1
  3389  2692  2718    1
  3390  2693  2777   un
  3391  2694  2695   un
  3392  2694  2699    1
  3393  2694  2701   un
  3394  2694  2718   un
  3395  2694  2729   un
  3396  2694  2740   un
  3397  2694  2748    1
  3398  2694  2756    1
  3399  2694  2769   un
  3400  2694  2774   un
  3401  2695  2700   un
  3402  2696  2697   un
  3403  2696  2700   un
  3404  2696  2758   un
  3405  2697  2698    1
  3406  2697  2813   un
  3407  2699  2729    1
  3408  2699  2740    1
  3409  2700  2757   un
  3410  2701  2705   un
  3411  2702  2703   un
  3412  2702  2705   un
  3413  2702  2767   un
  3414  2703  2704    1
  3415  2703  2812   un
  3416  2705  2766   un
  3417  2706  2707   un
  3418  2706  2711    1
  3419  2706  2713   un
  3420  2706  2718   un
  3421  2706  2729   un
  3422  2706  2740   un
  3423  2706  2744    1
  3424  2706  2752    1
  3425  2706  2777   un
  3426  2706  2780   un
  3427  2707  2712   un
  3428  2708  2709   un
  3429  2708  2712   un
  3430  2708  2764   un
  3431  2709  2710    1
  3432  2709  2811   un
  3433  2711  2718    1
  3434  2711  2740    1
  3435  2712  2763   un
  3436  2713  2717   un
  3437  2714  2715   un
  3438  2714  2717   un
  3439  2714  2761   un
  3440  2715  2716    1
  3441  2715  2814   un
  3442  2717  2760   un
  3443  2718  2719   un
  3444  2718  2724   un
  3445  2718  2740   un
  3446  2718  2748    1
  3447  2718  2752    1
  3448  2718  2757   un
  3449  2718  2760   un
  3450  2719  2723   un
  3451  2720  2721   un
  3452  2720  2723   un
  3453  2720  2754   un
  3454  2721  2722    1
  3455  2721  2796   un
  3456  2723  2753   un
  3457  2724  2728   un
  3458  2725  2726   un
  3459  2725  2728   un
  3460  2725  2742   un
  3461  2726  2727    1
  3462  2726  2797   un
  3463  2728  2741   un
  3464  2729  2730   un
  3465  2729  2735   un
  3466  2729  2740   un
  3467  2729  2744    1
  3468  2729  2756    1
  3469  2729  2763   un
  3470  2729  2766   un
  3471  2730  2734   un
  3472  2731  2732   un
  3473  2731  2734   un
  3474  2731  2746   un
  3475  2732  2733    1
  3476  2732  2798   un
  3477  2734  2745   un
  3478  2735  2739   un
  3479  2736  2737   un
  3480  2736  2739   un
  3481  2736  2750   un
  3482  2737  2738    1
  3483  2737  2795   un
  3484  2739  2749   un
  3485  2740  2741   un
  3486  2740  2744    1
  3487  2740  2745   un
  3488  2740  2748    1
  3489  2740  2785   un
  3490  2740  2788   un
  3491  2742  2743    1
  3492  2742  2794   un
  3493  2746  2747    1
  3494  2746  2791   un
  3495  2750  2751    1
  3496  2750  2792   un
  3497  2754  2755    1
  3498  2754  2793   un
  3499  2758  2759    1
  3500  2758  2809   un
  3501  2761  2762    1
  3502  2761  2808   un
  3503  2764  2765    1
  3504  2764  2807   un
  3505  2767  2768    1
  3506  2767  2810   un
  3507  2769  2773   un
  3508  2770  2771   un
  3509  2770  2773   un
  3510  2770  2789   un
  3511  2771  2772    1
  3512  2771  2800   un
  3513  2773  2788   un
  3514  2775  2776    1
  3515  2775  2801   un
  3516  2778  2779    1
  3517  2778  2802   un
  3518  2780  2784   un
  3519  2781  2782   un
  3520  2781  2784   un
  3521  2781  2786   un
  3522  2782  2783    1
  3523  2782  2799   un
  3524  2784  2785   un
  3525  2786  2787    1
  3526  2786  2804   un
  3527  2789  2790    1
  3528  2789  2805   un
  3529  2815  2816   un
  3530  2815  2820    1
  3531  2815  2822   un
  3532  2815  2826    1
  3533  2815  2828   un
  3534  2815  2840   un
  3535  2815  2852   un
  3536  2815  2863   un
  3537  2815  2883   un
  3538  2815  2886    1
  3539  2815  2887   un
  3540  2815  2890    1
  3541  2816  2821   un
  3542  2817  2818   un
  3543  2817  2821   un
  3544  2817  2909   un
  3545  2818  2819    1
  3546  2818  2940   un
  3547  2820  2840    1
  3548  2820  2863    1
  3549  2821  2908   un
  3550  2822  2827   un
  3551  2823  2824   un
  3552  2823  2827   un
  3553  2823  2912   un
  3554  2824  2825    1
  3555  2824  2937   un
  3556  2826  2828    1
  3557  2826  2852    1
  3558  2827  2911   un
  3559  2828  2829   un
  3560  2828  2833    1
  3561  2828  2835   un
  3562  2828  2852   un
  3563  2828  2863   un
  3564  2828  2874   un
  3565  2828  2882    1
  3566  2828  2890    1
  3567  2828  2903   un
  3568  2828  2908   un
  3569  2829  2834   un
  3570  2830  2831   un
  3571  2830  2834   un
  3572  2830  2892   un
  3573  2831  2832    1
  3574  2831  2947   un
  3575  2833  2863    1
  3576  2833  2874    1
  3577  2834  2891   un
  3578  2835  2839   un
  3579  2836  2837   un
  3580  2836  2839   un
  3581  2836  2901   un
  3582  2837  2838    1
  3583  2837  2946   un
  3584  2839  2900   un
  3585  2840  2841   un
  3586  2840  2845    1
  3587  2840  2847   un
  3588  2840  2852   un
  3589  2840  2863   un
  3590  2840  2874   un
  3591  2840  2878    1
  3592  2840  2886    1
  3593  2840  2911   un
  3594  2840  2914   un
  3595  2841  2846   un
  3596  2842  2843   un
  3597  2842  2846   un
  3598  2842  2898   un
  3599  2843  2844    1
  3600  2843  2945   un
  3601  2845  2852    1
  3602  2845  2874    1
  3603  2846  2897   un
  3604  2847  2851   un
  3605  2848  2849   un
  3606  2848  2851   un
  3607  2848  2895   un
  3608  2849  2850    1
  3609  2849  2948   un
  3610  2851  2894   un
  3611  2852  2853   un
  3612  2852  2858   un
  3613  2852  2874   un
  3614  2852  2882    1
  3615  2852  2886    1
  3616  2852  2891   un
  3617  2852  2894   un
  3618  2853  2857   un
  3619  2854  2855   un
  3620  2854  2857   un
  3621  2854  2888   un
  3622  2855  2856    1
  3623  2855  2930   un
  3624  2857  2887   un
  3625  2858  2862   un
  3626  2859  2860   un
  3627  2859  2862   un
  3628  2859  2876   un
  3629  2860  2861    1
  3630  2860  2931   un
  3631  2862  2875   un
  3632  2863  2864   un
  3633  2863  2869   un
  3634  2863  2874   un
  3635  2863  2878    1
  3636  2863  2890    1
  3637  2863  2897   un
  3638  2863  2900   un
  3639  2864  2868   un
  3640  2865  2866   un
  3641  2865  2868   un
  3642  2865  2880   un
  3643  2866  2867    1
  3644  2866  2932   un
  3645  2868  2879   un
  3646  2869  2873   un
  3647  2870  2871   un
  3648  2870  2873   un
  3649  2870  2884   un
  3650  2871  2872    1
  3651  2871  2929   un
  3652  2873  2883   un
  3653  2874  2875   un
  3654  2874  2878    1
  3655  2874  2879   un
  3656  2874  2882    1
  3657  2874  2919   un
  3658  2874  2922   un
  3659  2876  2877    1
  3660  2876  2928   un
  3661  2880  2881    1
  3662  2880  2925   un
  3663  2884  2885    1
  3664  2884  2926   un
  3665  2888  2889    1
  3666  2888  2927   un
  3667  2892  2893    1
  3668  2892  2943   un
  3669  2895  2896    1
  3670  2895  2942   un
  3671  2898  2899    1
  3672  2898  2941   un
  3673  2901  2902    1
  3674  2901  2944   un
  3675  2903  2907   un
  3676  2904  2905   un
  3677  2904  2907   un
  3678  2904  2923   un
  3679  2905  2906    1
  3680  2905  2934   un
  3681  2907  2922   un
  3682  2909  2910    1
  3683  2909  2935   un
  3684  2912  2913    1
  3685  2912  2936   un
  3686  2914  2918   un
  3687  2915  2916   un
  3688  2915  2918   un
  3689  2915  2920   un
  3690  2916  2917    1
  3691  2916  2933   un
  3692  2918  2919   un
  3693  2920  2921    1
  3694  2920  2938   un
  3695  2923  2924    1
  3696  2923  2939   un
  3697  2949  2950   un
  3698  2949  2954    1
  3699  2949  2956   un
  3700  2949  2960    1
  3701  2949  2962   un
  3702  2949  2974   un
  3703  2949  2986   un
  3704  2949  2997   un
  3705  2949  3017   un
  3706  2949  3020    1
  3707  2949  3021   un
  3708  2949  3024    1
  3709  2950  2955   un
  3710  2951  2952   un
  3711  2951  2955   un
  3712  2951  3043   un
  3713  2952  2953    1
  3714  2952  3074   un
  3715  2954  2974    1
  3716  2954  2997    1
  3717  2955  3042   un
  3718  2956  2961   un
  3719  2957  2958   un
  3720  2957  2961   un
  3721  2957  3046   un
  3722  2958  2959    1
  3723  2958  3071   un
  3724  2960  2962    1
  3725  2960  2986    1
  3726  2961  3045   un
  3727  2962  2963   un
  3728  2962  2967    1
  3729  2962  2969   un
  3730  2962  2986   un
  3731  2962  2997   un
  3732  2962  3008   un
  3733  2962  3016    1
  3734  2962  3024    1
  3735  2962  3037   un
  3736  2962  3042   un
  3737  2963  2968   un
  3738  2964  2965   un
  3739  2964  2968   un
  3740  2964  3026   un
  3741  2965  2966    1
  3742  2965  3081   un
  3743  2967  2997    1
  3744  2967  3008    1
  3745  2968  3025   un
  3746  2969  2973   un
  3747  2970  2971   un
  3748  2970  2973   un
  3749  2970  3035   un
  3750  2971  2972    1
  3751  2971  3080   un
  3752  2973  3034   un
  3753  2974  2975   un
  3754  2974  2979    1
  3755  2974  2981   un
  3756  2974  2986   un
  3757  2974  2997   un
  3758  2974  3008   un
  3759  2974  3012    1
  3760  2974  3020    1
  3761  2974  3045   un
  3762  2974  3048   un
  3763  2975  2980   un
  3764  2976  2977   un
  3765  2976  2980   un
  3766  2976  3032   un
  3767  2977  2978    1
  3768  2977  3079   un
  3769  2979  2986    1
  3770  2979  3008    1
  3771  2980  3031   un
  3772  2981  2985   un
  3773  2982  2983   un
  3774  2982  2985   un
  3775  2982  3029   un
  3776  2983  2984    1
  3777  2983  3082   un
  3778  2985  3028   un
  3779  2986  2987   un
  3780  2986  2992   un
  3781  2986  3008   un
  3782  2986  3016    1
  3783  2986  3020    1
  3784  2986  3025   un
  3785  2986  3028   un
  3786  2987  2991   un
  3787  2988  2989   un
  3788  2988  2991   un
  3789  2988  3022   un
  3790  2989  2990    1
  3791  2989  3064   un
  3792  2991  3021   un
  3793  2992  2996   un
  3794  2993  2994   un
  3795  2993  2996   un
  3796  2993  3010   un
  3797  2994  2995    1
  3798  2994  3065   un
  3799  2996  3009   un
  3800  2997  2998   un
  3801  2997  3003   un
  3802  2997  3008   un
  3803  2997  3012    1
  3804  2997  3024    1
  3805  2997  3031   un
  3806  2997  3034   un
  3807  2998  3002   un
  3808  2999  3000   un
  3809  2999  3002   un
  3810  2999  3014   un
  3811  3000  3001    1
  3812  3000  3066   un
  3813  3002  3013   un
  3814  3003  3007   un
  3815  3004  3005   un
  3816  3004  3007   un
  3817  3004  3018   un
  3818  3005  3006    1
  3819  3005  3063   un
  3820  3007  3017   un
  3821  3008  3009   un
  3822  3008  3012    1
  3823  3008  3013   un
  3824  3008  3016    1
  3825  3008  3053   un
  3826  3008  3056   un
  3827  3010  3011    1
  3828  3010  3062   un
  3829  3014  3015    1
  3830  3014  3059   un
  3831  3018  3019    1
  3832  3018  3060   un
  3833  3022  3023    1
  3834  3022  3061   un
  3835  3026  3027    1
  3836  3026  3077   un
  3837  3029  3030    1
  3838  3029  3076   un
  3839  3032  3033    1
  3840  3032  3075   un
  3841  3035  3036    1
  3842  3035  3078   un
  3843  3037  3041   un
  3844  3038  3039   un
  3845  3038  3041   un
  3846  3038  3057   un
  3847  3039  3040    1
  3848  3039  3068   un
  3849  3041  3056   un
  3850  3043  3044    1
  3851  3043  3069   un
  3852  3046  3047    1
  3853  3046  3070   un
  3854  3048  3052   un
  3855  3049  3050   un
  3856  3049  3052   un
  3857  3049  3054   un
  3858  3050  3051    1
  3859  3050  3067   un
  3860  3052  3053   un
  3861  3054  3055    1
  3862  3054  3072   un
  3863  3057  3058    1
  3864  3057  3073   un
  3865  3083  3084   un
  3866  3083  3088    1
  3867  3083  3090   un
  3868  3083  3094    1
  3869  3083  3096   un
  3870  3083  3108   un
  3871  3083  3120   un
  3872  3083  3131   un
  3873  3083  3151   un
  3874  3083  3154    1
  3875  3083  3155   un
  3876  3083  3158    1
  3877  3084  3089   un
  3878  3085  3086   un
  3879  3085  3089   un
  3880  3085  3177   un
  3881  3086  3087    1
  3882  3086  3208   un
  3883  3088  3108    1
  3884  3088  3131    1
  3885  3089  3176   un
  3886  3090  3095   un
  3887  3091  3092   un
  3888  3091  3095   un
  3889  3091  3180   un
  3890  3092  3093    1
  3891  3092  3205   un
  3892  3094  3096    1
  3893  3094  3120    1
  3894  3095  3179   un
  3895  3096  3097   un
  3896  3096  3101    1
  3897  3096  3103   un
  3898  3096  3120   un
  3899  3096  3131   un
  3900  3096  3142   un
  3901  3096  3150    1
  3902  3096  3158    1
  3903  3096  3171   un
  3904  3096  3176   un
  3905  3097  3102   un
  3906  3098  3099   un
  3907  3098  3102   un
  3908  3098  3160   un
  3909  3099  3100    1
  3910  3099  3215   un
  3911  3101  3131    1
  3912  3101  3142    1
  3913  3102  3159   un
  3914  3103  3107   un
  3915  3104  3105   un
  3916  3104  3107   un
  3917  3104  3169   un
  3918  3105  3106    1
  3919  3105  3214   un
  3920  3107  3168   un
  3921  3108  3109   un
  3922  3108  3113    1
  3923  3108  3115   un
  3924  3108  3120   un
  3925  3108  3131   un
  3926  3108  3142   un
  3927  3108  3146    1
  3928  3108  3154    1
  3929  3108  3179   un
  3930  3108  3182   un
  3931  3109  3114   un
  3932  3110  3111   un
  3933  3110  3114   un
  3934  3110  3166   un
  3935  3111  3112    1
  3936  3111  3213   un
  3937  3113  3120    1
  3938  3113  3142    1
  3939  3114  3165   un
  3940  3115  3119   un
  3941  3116  3117   un
  3942  3116  3119   un
  3943  3116  3163   un
  3944  3117  3118    1
  3945  3117  3216   un
  3946  3119  3162   un
  3947  3120  3121   un
  3948  3120  3126   un
  3949  3120  3142   un
  3950  3120  3150    1
  3951  3120  3154    1
  3952  3120  3159   un
  3953  3120  3162   un
  3954  3121  3125   un
  3955  3122  3123   un
  3956  3122  3125   un
  3957  3122  3156   un
  3958  3123  3124    1
  3959  3123  3198   un
  3960  3125  3155   un
  3961  3126  3130   un
  3962  3127  3128   un
  3963  3127  3130   un
  3964  3127  3144   un
  3965  3128  3129    1
  3966  3128  3199   un
  3967  3130  3143   un
  3968  3131  3132   un
  3969  3131  3137   un
  3970  3131  3142   un
  3971  3131  3146    1
  3972  3131  3158    1
  3973  3131  3165   un
  3974  3131  3168   un
  3975  3132  3136   un
  3976  3133  3134   un
  3977  3133  3136   un
  3978  3133  3148   un
  3979  3134  3135    1
  3980  3134  3200   un
  3981  3136  3147   un
  3982  3137  3141   un
  3983  3138  3139   un
  3984  3138  3141   un
  3985  3138  3152   un
  3986  3139  3140    1
  3987  3139  3197   un
  3988  3141  3151   un
  3989  3142  3143   un
  3990  3142  3146    1
  3991  3142  3147   un
  3992  3142  3150    1
  3993  3142  3187   un
  3994  3142  3190   un
  3995  3144  3145    1
  3996  3144  3196   un
  3997  3148  3149    1
  3998  3148  3193   un
  3999  3152  3153    1
  4000  3152  3194   un
  4001  3156  3157    1
  4002  3156  3195   un
  4003  3160  3161    1
  4004  3160  3211   un
  4005  3163  3164    1
  4006  3163  3210   un
  4007  3166  3167    1
  4008  3166  3209   un
  4009  3169  3170    1
  4010  3169  3212   un
  4011  3171  3175   un
  4012  3172  3173   un
  4013  3172  3175   un
  4014  3172  3191   un
  4015  3173  3174    1
  4016  3173  3202   un
  4017  3175  3190   un
  4018  3177  3178    1
  4019  3177  3203   un
  4020  3180  3181    1
  4021  3180  3204   un
  4022  3182  3186   un
  4023  3183  3184   un
  4024  3183  3186   un
  4025  3183  3188   un
  4026  3184  3185    1
  4027  3184  3201   un
  4028  3186  3187   un
  4029  3188  3189    1
  4030  3188  3206   un
  4031  3191  3192    1
  4032  3191  3207   un
  4033  3217  3218   un
  4034  3217  3222    1
  4035  3217  3224   un
  4036  3217  3228    1
  4037  3217  3230   un
  4038  3217  3242   un
  4039  3217  3254   un
  4040  3217  3265   un
  4041  3217  3285   un
  4042  3217  3288    1
  4043  3217  3289   un
  4044  3217  3292    1
  4045  3218  3223   un
  4046  3219  3220   un
  4047  3219  3223   un
  4048  3219  3311   un
  4049  3220  3221    1
  4050  3220  3342   un
  4051  3222  3242    1
  4052  3222  3265    1
  4053  3223  3310   un
  4054  3224  3229   un
  4055  3225  3226   un
  4056  3225  3229   un
  4057  3225  3314   un
  4058  3226  3227    1
  4059  3226  3339   un
  4060  3228  3230    1
  4061  3228  3254    1
  4062  3229  3313   un
  4063  3230  3231   un
  4064  3230  3235    1
  4065  3230  3237   un
  4066  3230  3254   un
  4067  3230  3265   un
  4068  3230  3276   un
  4069  3230  3284    1
  4070  3230  3292    1
  4071  3230  3305   un
  4072  3230  3310   un
  4073  3231  3236   un
  4074  3232  3233   un
  4075  3232  3236   un
  4076  3232  3294   un
  4077  3233  3234    1
  4078  3233  3349   un
  4079  3235  3265    1
  4080  3235  3276    1
  4081  3236  3293   un
  4082  3237  3241   un
  4083  3238  3239   un
  4084  3238  3241   un
  4085  3238  3303   un
  4086  3239  3240    1
  4087  3239  3348   un
  4088  3241  3302   un
  4089  3242  3243   un
  4090  3242  3247    1
  4091  3242  3249   un
  4092  3242  3254   un
  4093  3242  3265   un
  4094  3242  3276   un
  4095  3242  3280    1
  4096  3242  3288    1
  4097  3242  3313   un
  4098  3242  3316   un
  4099  3243  3248   un
  4100  3244  3245   un
  4101  3244  3248   un
  4102  3244  3300   un
  4103  3245  3246    1
  4104  3245  3347   un
  4105  3247  3254    1
  4106  3247  3276    1
  4107  3248  3299   un
  4108  3249  3253   un
  4109  3250  3251   un
  4110  3250  3253   un
  4111  3250  3297   un
  4112  3251  3252    1
  4113  3251  3350   un
  4114  3253  3296   un
  4115  3254  3255   un
  4116  3254  3260   un
  4117  3254  3276   un
  4118  3254  3284    1
  4119  3254  3288    1
  4120  3254  3293   un
  4121  3254  3296   un
  4122  3255  3259   un
  4123  3256  3257   un
  4124  3256  3259   un
  4125  3256  3290   un
  4126  3257  3258    1
  4127  3257  3332   un
  4128  3259  3289   un
  4129  3260  3264   un
  4130  3261  3262   un
  4131  3261  3264   un
  4132  3261  3278   un
  4133  3262  3263    1
  4134  3262  3333   un
  4135  3264  3277   un
  4136  3265  3266   un
  4137  3265  3271   un
  4138  3265  3276   un
  4139  3265  3280    1
  4140  3265  3292    1
  4141  3265  3299   un
  4142  3265  3302   un
  4143  3266  3270   un
  4144  3267  3268   un
  4145  3267  3270   un
  4146  3267  3282   un
  4147  3268  3269    1
  4148  3268  3334   un
  4149  3270  3281   un
  4150  3271  3275   un
  4151  3272  3273   un
  4152  3272  3275   un
  4153  3272  3286   un
  4154  3273  3274    1
  4155  3273  3331   un
  4156  3275  3285   un
  4157  3276  3277   un
  4158  3276  3280    1
  4159  3276  3281   un
  4160  3276  3284    1
  4161  3276  3321   un
  4162  3276  3324   un
  4163  3278  3279    1
  4164  3278  3330   un
  4165  3282  3283    1
  4166  3282  3327   un
  4167  3286  3287    1
  4168  3286  3328   un
  4169  3290  3291    1
  4170  3290  3329   un
  4171  3294  3295    1
  4172  3294  3345   un
  4173  3297  3298    1
  4174  3297  3344   un
  4175  3300  3301    1
  4176  3300  3343   un
  4177  3303  3304    1
  4178  3303  3346   un
  4179  3305  3309   un
  4180  3306  3307   un
  4181  3306  3309   un
  4182  3306  3325   un
  4183  3307  3308    1
  4184  3307  3336   un
  4185  3309  3324   un
  4186  3311  3312    1
  4187  3311  3337   un
  4188  3314  3315    1
  4189  3314  3338   un
  4190  3316  3320   un
  4191  3317  3318   un
  4192  3317  3320   un
  4193  3317  3322   un
  4194  3318  3319    1
  4195  3318  3335   un
  4196  3320  3321   un
  4197  3322  3323    1
  4198  3322  3340   un
  4199  3325  3326    1
  4200  3325  3341   un
  4201  3351  3352   un
  4202  3351  3356    1
  4203  3351  3358   un
  4204  3351  3362    1
  4205  3351  3364   un
  4206  3351  3376   un
  4207  3351  3388   un
  4208  3351  3399   un
  4209  3351  3419   un
  4210  3351  3422    1
  4211  3351  3423   un
  4212  3351  3426    1
  4213  3352  3357   un
  4214  3353  3354   un
  4215  3353  3357   un
  4216  3353  3445   un
  4217  3354  3355    1
  4218  3354  3476   un
  4219  3356  3376    1
  4220  3356  3399    1
  4221  3357  3444   un
  4222  3358  3363   un
  4223  3359  3360   un
  4224  3359  3363   un
  4225  3359  3448   un
  4226  3360  3361    1
  4227  3360  3473   un
  4228  3362  3364    1
  4229  3362  3388    1
  4230  3363  3447   un
  4231  3364  3365   un
  4232  3364  3369    1
  4233  3364  3371   un
  4234  3364  3388   un
  4235  3364  3399   un
  4236  3364  3410   un
  4237  3364  3418    1
  4238  3364  3426    1
  4239  3364  3439   un
  4240  3364  3444   un
  4241  3365  3370   un
  4242  3366  3367   un
  4243  3366  3370   un
  4244  3366  3428   un
  4245  3367  3368    1
  4246  3367  3483   un
  4247  3369  3399    1
  4248  3369  3410    1
  4249  3370  3427   un
  4250  3371  3375   un
  4251  3372  3373   un
  4252  3372  3375   un
  4253  3372  3437   un
  4254  3373  3374    1
  4255  3373  3482   un
  4256  3375  3436   un
  4257  3376  3377   un
  4258  3376  3381    1
  4259  3376  3383   un
  4260  3376  3388   un
  4261  3376  3399   un
  4262  3376  3410   un
  4263  3376  3414    1
  4264  3376  3422    1
  4265  3376  3447   un
  4266  3376  3450   un
  4267  3377  3382   un
  4268  3378  3379   un
  4269  3378  3382   un
  4270  3378  3434   un
  4271  3379  3380    1
  4272  3379  3481   un
  4273  3381  3388    1
  4274  3381  3410    1
  4275  3382  3433   un
  4276  3383  3387   un
  4277  3384  3385   un
  4278  3384  3387   un
  4279  3384  3431   un
  4280  3385  3386    1
  4281  3385  3484   un
  4282  3387  3430   un
  4283  3388  3389   un
  4284  3388  3394   un
  4285  3388  3410   un
  4286  3388  3418    1
  4287  3388  3422    1
  4288  3388  3427   un
  4289  3388  3430   un
  4290  3389  3393   un
  4291  3390  3391   un
  4292  3390  3393   un
  4293  3390  3424   un
  4294  3391  3392    1
  4295  3391  3466   un
  4296  3393  3423   un
  4297  3394  3398   un
  4298  3395  3396   un
  4299  3395  3398   un
  4300  3395  3412   un
  4301  3396  3397    1
  4302  3396  3467   un
  4303  3398  3411   un
  4304  3399  3400   un
  4305  3399  3405   un
  4306  3399  3410   un
  4307  3399  3414    1
  4308  3399  3426    1
  4309  3399  3433   un
  4310  3399  3436   un
  4311  3400  3404   un
  4312  3401  3402   un
  4313  3401  3404   un
  4314  3401  3416   un
  4315  3402  3403    1
  4316  3402  3468   un
  4317  3404  3415   un
  4318  3405  3409   un
  4319  3406  3407   un
  4320  3406  3409   un
  4321  3406  3420   un
  4322  3407  3408    1
  4323  3407  3465   un
  4324  3409  3419   un
  4325  3410  3411   un
  4326  3410  3414    1
  4327  3410  3415   un
  4328  3410  3418    1
  4329  3410  3455   un
  4330  3410  3458   un
  4331  3412  3413    1
  4332  3412  3464   un
  4333  3416  3417    1
  4334  3416  3461   un
  4335  3420  3421    1
  4336  3420  3462   un
  4337  3424  3425    1
  4338  3424  3463   un
  4339  3428  3429    1
  4340  3428  3479   un
  4341  3431  3432    1
  4342  3431  3478   un
  4343  3434  3435    1
  4344  3434  3477   un
  4345  3437  3438    1
  4346  3437  3480   un
  4347  3439  3443   un
  4348  3440  3441   un
  4349  3440  3443   un
  4350  3440  3459   un
  4351  3441  3442    1
  4352  3441  3470   un
  4353  3443  3458   un
  4354  3445  3446    1
  4355  3445  3471   un
  4356  3448  3449    1
  4357  3448  3472   un
  4358  3450  3454   un
  4359  3451  3452   un
  4360  3451  3454   un
  4361  3451  3456   un
  4362  3452  3453    1
  4363  3452  3469   un
  4364  3454  3455   un
  4365  3456  3457    1
  4366  3456  3474   un
  4367  3459  3460    1
  4368  3459  3475   un
  4369  3485  3486   un
  4370  3485  3490    1
  4371  3485  3492   un
  4372  3485  3496    1
  4373  3485  3498   un
  4374  3485  3510   un
  4375  3485  3522   un
  4376  3485  3533   un
  4377  3485  3553   un
  4378  3485  3556    1
  4379  3485  3557   un
  4380  3485  3560    1
  4381  3486  3491   un
  4382  3487  3488   un
  4383  3487  3491   un
  4384  3487  3579   un
  4385  3488  3489    1
  4386  3488  3610   un
  4387  3490  3510    1
  4388  3490  3533    1
  4389  3491  3578   un
  4390  3492  3497   un
  4391  3493  3494   un
  4392  3493  3497   un
  4393  3493  3582   un
  4394  3494  3495    1
  4395  3494  3607   un
  4396  3496  3498    1
  4397  3496  3522    1
  4398  3497  3581   un
  4399  3498  3499   un
  4400  3498  3503    1
  4401  3498  3505   un
  4402  3498  3522   un
  4403  3498  3533   un
  4404  3498  3544   un
  4405  3498  3552    1
  4406  3498  3560    1
  4407  3498  3573   un
  4408  3498  3578   un
  4409  3499  3504   un
  4410  3500  3501   un
  4411  3500  3504   un
  4412  3500  3562   un
  4413  3501  3502    1
  4414  3501  3617   un
  4415  3503  3533    1
  4416  3503  3544    1
  4417  3504  3561   un
  4418  3505  3509   un
  4419  3506  3507   un
  4420  3506  3509   un
  4421  3506  3571   un
  4422  3507  3508    1
  4423  3507  3616   un
  4424  3509  3570   un
  4425  3510  3511   un
  4426  3510  3515    1
  4427  3510  3517   un
  4428  3510  3522   un
  4429  3510  3533   un
  4430  3510  3544   un
  4431  3510  3548    1
  4432  3510  3556    1
  4433  3510  3581   un
  4434  3510  3584   un
  4435  3511  3516   un
  4436  3512  3513   un
  4437  3512  3516   un
  4438  3512  3568   un
  4439  3513  3514    1
  4440  3513  3615   un
  4441  3515  3522    1
  4442  3515  3544    1
  4443  3516  3567   un
  4444  3517  3521   un
  4445  3518  3519   un
  4446  3518  3521   un
  4447  3518  3565   un
  4448  3519  3520    1
  4449  3519  3618   un
  4450  3521  3564   un
  4451  3522  3523   un
  4452  3522  3528   un
  4453  3522  3544   un
  4454  3522  3552    1
  4455  3522  3556    1
  4456  3522  3561   un
  4457  3522  3564   un
  4458  3523  3527   un
  4459  3524  3525   un
  4460  3524  3527   un
  4461  3524  3558   un
  4462  3525  3526    1
  4463  3525  3600   un
  4464  3527  3557   un
  4465  3528  3532   un
  4466  3529  3530   un
  4467  3529  3532   un
  4468  3529  3546   un
  4469  3530  3531    1
  4470  3530  3601   un
  4471  3532  3545   un
  4472  3533  3534   un
  4473  3533  3539   un
  4474  3533  3544   un
  4475  3533  3548    1
  4476  3533  3560    1
  4477  3533  3567   un
  4478  3533  3570   un
  4479  3534  3538   un
  4480  3535  3536   un
  4481  3535  3538   un
  4482  3535  3550   un
  4483  3536  3537    1
  4484  3536  3602   un
  4485  3538  3549   un
  4486  3539  3543   un
  4487  3540  3541   un
  4488  3540  3543   un
  4489  3540  3554   un
  4490  3541  3542    1
  4491  3541  3599   un
  4492  3543  3553   un
  4493  3544  3545   un
  4494  3544  3548    1
  4495  3544  3549   un
  4496  3544  3552    1
  4497  3544  3589   un
  4498  3544  3592   un
  4499  3546  3547    1
  4500  3546  3598   un
  4501  3550  3551    1
  4502  3550  3595   un
  4503  3554  3555    1
  4504  3554  3596   un
  4505  3558  3559    1
  4506  3558  3597   un
  4507  3562  3563    1
  4508  3562  3613   un
  4509  3565  3566    1
  4510  3565  3612   un
  4511  3568  3569    1
  4512  3568  3611   un
  4513  3571  3572    1
  4514  3571  3614   un
  4515  3573  3577   un
  4516  3574  3575   un
  4517  3574  3577   un
  4518  3574  3593   un
  4519  3575  3576    1
  4520  3575  3604   un
  4521  3577  3592   un
  4522  3579  3580    1
  4523  3579  3605   un
  4524  3582  3583    1
  4525  3582  3606   un
  4526  3584  3588   un
  4527  3585  3586   un
  4528  3585  3588   un
  4529  3585  3590   un
  4530  3586  3587    1
  4531  3586  3603   un
  4532  3588  3589   un
  4533  3590  3591    1
  4534  3590  3608   un
  4535  3593  3594    1
  4536  3593  3609   un
  4537  3619  3620   un
  4538  3619  3624    1
  4539  3619  3626   un
  4540  3619  3630    1
  4541  3619  3632   un
  4542  3619  3644   un
  4543  3619  3656   un
  4544  3619  3667   un
  4545  3619  3687   un
  4546  3619  3690    1
  4547  3619  3691   un
  4548  3619  3694    1
  4549  3620  3625   un
  4550  3621  3622   un
  4551  3621  3625   un
  4552  3621  3713   un
  4553  3622  3623    1
  4554  3622  3744   un
  4555  3624  3644    1
  4556  3624  3667    1
  4557  3625  3712   un
  4558  3626  3631   un
  4559  3627  3628   un
  4560  3627  3631   un
  4561  3627  3716   un
  4562  3628  3629    1
  4563  3628  3741   un
  4564  3630  3632    1
  4565  3630  3656    1
  4566  3631  3715   un
  4567  3632  3633   un
  4568  3632  3637    1
  4569  3632  3639   un
  4570  3632  3656   un
  4571  3632  3667   un
  4572  3632  3678   un
  4573  3632  3686    1
  4574  3632  3694    1
  4575  3632  3707   un
  4576  3632  3712   un
  4577  3633  3638   un
  4578  3634  3635   un
  4579  3634  3638   un
  4580  3634  3696   un
  4581  3635  3636    1
  4582  3635  3751   un
  4583  3637  3667    1
  4584  3637  3678    1
  4585  3638  3695   un
  4586  3639  3643   un
  4587  3640  3641   un
  4588  3640  3643   un
  4589  3640  3705   un
  4590  3641  3642    1
  4591  3641  3750   un
  4592  3643  3704   un
  4593  3644  3645   un
  4594  3644  3649    1
  4595  3644  3651   un
  4596  3644  3656   un
  4597  3644  3667   un
  4598  3644  3678   un
  4599  3644  3682    1
  4600  3644  3690    1
  4601  3644  3715   un
  4602  3644  3718   un
  4603  3645  3650   un
  4604  3646  3647   un
  4605  3646  3650   un
  4606  3646  3702   un
  4607  3647  3648    1
  4608  3647  3749   un
  4609  3649  3656    1
  4610  3649  3678    1
  4611  3650  3701   un
  4612  3651  3655   un
  4613  3652  3653   un
  4614  3652  3655   un
  4615  3652  3699   un
  4616  3653  3654    1
  4617  3653  3752   un
  4618  3655  3698   un
  4619  3656  3657   un
  4620  3656  3662   un
  4621  3656  3678   un
  4622  3656  3686    1
  4623  3656  3690    1
  4624  3656  3695   un
  4625  3656  3698   un
  4626  3657  3661   un
  4627  3658  3659   un
  4628  3658  3661   un
  4629  3658  3692   un
  4630  3659  3660    1
  4631  3659  3734   un
  4632  3661  3691   un
  4633  3662  3666   un
  4634  3663  3664   un
  4635  3663  3666   un
  4636  3663  3680   un
  4637  3664  3665    1
  4638  3664  3735   un
  4639  3666  3679   un
  4640  3667  3668   un
  4641  3667  3673   un
  4642  3667  3678   un
  4643  3667  3682    1
  4644  3667  3694    1
  4645  3667  3701   un
  4646  3667  3704   un
  4647  3668  3672   un
  4648  3669  3670   un
  4649  3669  3672   un
  4650  3669  3684   un
  4651  3670  3671    1
  4652  3670  3736   un
  4653  3672  3683   un
  4654  3673  3677   un
  4655  3674  3675   un
  4656  3674  3677   un
  4657  3674  3688   un
  4658  3675  3676    1
  4659  3675  3733   un
  4660  3677  3687   un
  4661  3678  3679   un
  4662  3678  3682    1
  4663  3678  3683   un
  4664  3678  3686    1
  4665  3678  3723   un
  4666  3678  3726   un
  4667  3680  3681    1
  4668  3680  3732   un
  4669  3684  3685    1
  4670  3684  3729   un
  4671  3688  3689    1
  4672  3688  3730   un
  4673  3692  3693    1
  4674  3692  3731   un
  4675  3696  3697    1
  4676  3696  3747   un
  4677  3699  3700    1
  4678  3699  3746   un
  4679  3702  3703    1
  4680  3702  3745   un
  4681  3705  3706    1
  4682  3705  3748   un
  4683  3707  3711   un
  4684  3708  3709   un
  4685  3708  3711   un
  4686  3708  3727   un
  4687  3709  3710    1
  4688  3709  3738   un
  4689  3711  3726   un
  4690  3713  3714    1
  4691  3713  3739   un
  4692  3716  3717    1
  4693  3716  3740   un
  4694  3718  3722   un
  4695  3719  3720   un
  4696  3719  3722   un
  4697  3719  3724   un
  4698  3720  3721    1
  4699  3720  3737   un
  4700  3722  3723   un
  4701  3724  3725    1
  4702  3724  3742   un
  4703  3727  3728    1
  4704  3727  3743   un
  4705  3753  3754   un
  4706  3753  3758    1
  4707  3753  3760   un
  4708  3753  3764    1
  4709  3753  3766   un
  4710  3753  3778   un
  4711  3753  3790   un
  4712  3753  3801   un
  4713  3753  3821   un
  4714  3753  3824    1
  4715  3753  3825   un
  4716  3753  3828    1
  4717  3754  3759   un
  4718  3755  3756   un
  4719  3755  3759   un
  4720  3755  3847   un
  4721  3756  3757    1
  4722  3756  3878   un
  4723  3758  3778    1
  4724  3758  3801    1
  4725  3759  3846   un
  4726  3760  3765   un
  4727  3761  3762   un
  4728  3761  3765   un
  4729  3761  3850   un
  4730  3762  3763    1
  4731  3762  3875   un
  4732  3764  3766    1
  4733  3764  3790    1
  4734  3765  3849   un
  4735  3766  3767   un
  4736  3766  3771    1
  4737  3766  3773   un
  4738  3766  3790   un
  4739  3766  3801   un
  4740  3766  3812   un
  4741  3766  3820    1
  4742  3766  3828    1
  4743  3766  3841   un
  4744  3766  3846   un
  4745  3767  3772   un
  4746  3768  3769   un
  4747  3768  3772   un
  4748  3768  3830   un
  4749  3769  3770    1
  4750  3769  3885   un
  4751  3771  3801    1
  4752  3771  3812    1
  4753  3772  3829   un
  4754  3773  3777   un
  4755  3774  3775   un
  4756  3774  3777   un
  4757  3774  3839   un
  4758  3775  3776    1
  4759  3775  3884   un
  4760  3777  3838   un
  4761  3778  3779   un
  4762  3778  3783    1
  4763  3778  3785   un
  4764  3778  3790   un
  4765  3778  3801   un
  4766  3778  3812   un
  4767  3778  3816    1
  4768  3778  3824    1
  4769  3778  3849   un
  4770  3778  3852   un
  4771  3779  3784   un
  4772  3780  3781   un
  4773  3780  3784   un
  4774  3780  3836   un
  4775  3781  3782    1
  4776  3781  3883   un
  4777  3783  3790    1
  4778  3783  3812    1
  4779  3784  3835   un
  4780  3785  3789   un
  4781  3786  3787   un
  4782  3786  3789   un
  4783  3786  3833   un
  4784  3787  3788    1
  4785  3787  3886   un
  4786  3789  3832   un
  4787  3790  3791   un
  4788  3790  3796   un
  4789  3790  3812   un
  4790  3790  3820    1
  4791  3790  3824    1
  4792  3790  3829   un
  4793  3790  3832   un
  4794  3791  3795   un
  4795  3792  3793   un
  4796  3792  3795   un
  4797  3792  3826   un
  4798  3793  3794    1
  4799  3793  3868   un
  4800  3795  3825   un
  4801  3796  3800   un
  4802  3797  3798   un
  4803  3797  3800   un
  4804  3797  3814   un
  4805  3798  3799    1
  4806  3798  3869   un
  4807  3800  3813   un
  4808  3801  3802   un
  4809  3801  3807   un
  4810  3801  3812   un
  4811  3801  3816    1
  4812  3801  3828    1
  4813  3801  3835   un
  4814  3801  3838   un
  4815  3802  3806   un
  4816  3803  3804   un
  4817  3803  3806   un
  4818  3803  3818   un
  4819  3804  3805    1
  4820  3804  3870   un
  4821  3806  3817   un
  4822  3807  3811   un
  4823  3808  3809   un
  4824  3808  3811   un
  4825  3808  3822   un
  4826  3809  3810    1
  4827  3809  3867   un
  4828  3811  3821   un
  4829  3812  3813   un
  4830  3812  3816    1
  4831  3812  3817   un
  4832  3812  3820    1
  4833  3812  3857   un
  4834  3812  3860   un
  4835  3814  3815    1
  4836  3814  3866   un
  4837  3818  3819    1
  4838  3818  3863   un
  4839  3822  3823    1
  4840  3822  3864   un
  4841  3826  3827    1
  4842  3826  3865   un
  4843  3830  3831    1
  4844  3830  3881   un
  4845  3833  3834    1
  4846  3833  3880   un
  4847  3836  3837    1
  4848  3836  3879   un
  4849  3839  3840    1
  4850  3839  3882   un
  4851  3841  3845   un
  4852  3842  3843   un
  4853  3842  3845   un
  4854  3842  3861   un
  4855  3843  3844    1
  4856  3843  3872   un
  4857  3845  3860   un
  4858  3847  3848    1
  4859  3847  3873   un
  4860  3850  3851    1
  4861  3850  3874   un
  4862  3852  3856   un
  4863  3853  3854   un
  4864  3853  3856   un
  4865  3853  3858   un
  4866  3854  3855    1
  4867  3854  3871   un
  4868  3856  3857   un
  4869  3858  3859    1
  4870  3858  3876   un
  4871  3861  3862    1
  4872  3861  3877   un
  4873  3887  3888   un
  4874  3887  3892    1
  4875  3887  3894   un
  4876  3887  3898    1
  4877  3887  3900   un
  4878  3887  3912   un
  4879  3887  3924   un
  4880  3887  3935   un
  4881  3887  3955   un
  4882  3887  3958    1
  4883  3887  3959   un
  4884  3887  3962    1
  4885  3888  3893   un
  4886  3889  3890   un
  4887  3889  3893   un
  4888  3889  3981   un
  4889  3890  3891    1
  4890  3890  4012   un
  4891  3892  3912    1
  4892  3892  3935    1
  4893  3893  3980   un
  4894  3894  3899   un
  4895  3895  3896   un
  4896  3895  3899   un
  4897  3895  3984   un
  4898  3896  3897    1
  4899  3896  4009   un
  4900  3898  3900    1
  4901  3898  3924    1
  4902  3899  3983   un
  4903  3900  3901   un
  4904  3900  3905    1
  4905  3900  3907   un
  4906  3900  3924   un
  4907  3900  3935   un
  4908  3900  3946   un
  4909  3900  3954    1
  4910  3900  3962    1
  4911  3900  3975   un
  4912  3900  3980   un
  4913  3901  3906   un
  4914  3902  3903   un
  4915  3902  3906   un
  4916  3902  3964   un
  4917  3903  3904    1
  4918  3903  4019   un
  4919  3905  3935    1
  4920  3905  3946    1
  4921  3906  3963   un
  4922  3907  3911   un
  4923  3908  3909   un
  4924  3908  3911   un
  4925  3908  3973   un
  4926  3909  3910    1
  4927  3909  4018   un
  4928  3911  3972   un
  4929  3912  3913   un
  4930  3912  3917    1
  4931  3912  3919   un
  4932  3912  3924   un
  4933  3912  3935   un
  4934  3912  3946   un
  4935  3912  3950    1
  4936  3912  3958    1
  4937  3912  3983   un
  4938  3912  3986   un
  4939  3913  3918   un
  4940  3914  3915   un
  4941  3914  3918   un
  4942  3914  3970   un
  4943  3915  3916    1
  4944  3915  4017   un
  4945  3917  3924    1
  4946  3917  3946    1
  4947  3918  3969   un
  4948  3919  3923   un
  4949  3920  3921   un
  4950  3920  3923   un
  4951  3920  3967   un
  4952  3921  3922    1
  4953  3921  4020   un
  4954  3923  3966   un
  4955  3924  3925   un
  4956  3924  3930   un
  4957  3924  3946   un
  4958  3924  3954    1
  4959  3924  3958    1
  4960  3924  3963   un
  4961  3924  3966   un
  4962  3925  3929   un
  4963  3926  3927   un
  4964  3926  3929   un
  4965  3926  3960   un
  4966  3927  3928    1
  4967  3927  4002   un
  4968  3929  3959   un
  4969  3930  3934   un
  4970  3931  3932   un
  4971  3931  3934   un
  4972  3931  3948   un
  4973  3932  3933    1
  4974  3932  4003   un
  4975  3934  3947   un
  4976  3935  3936   un
  4977  3935  3941   un
  4978  3935  3946   un
  4979  3935  3950    1
  4980  3935  3962    1
  4981  3935  3969   un
  4982  3935  3972   un
  4983  3936  3940   un
  4984  3937  3938   un
  4985  3937  3940   un
  4986  3937  3952   un
  4987  3938  3939    1
  4988  3938  4004   un
  4989  3940  3951   un
  4990  3941  3945   un
  4991  3942  3943   un
  4992  3942  3945   un
  4993  3942  3956   un
  4994  3943  3944    1
  4995  3943  4001   un
  4996  3945  3955   un
  4997  3946  3947   un
  4998  3946  3950    1
  4999  3946  3951   un
  5000  3946  3954    1
  5001  3946  3991   un
  5002  3946  3994   un
  5003  3948  3949    1
  5004  3948  4000   un
  5005  3952  3953    1
  5006  3952  3997   un
  5007  3956  3957    1
  5008  3956  3998   un
  5009  3960  3961    1
  5010  3960  3999   un
  5011  3964  3965    1
  5012  3964  4015   un
  5013  3967  3968    1
  5014  3967  4014   un
  5015  3970  3971    1
  5016  3970  4013   un
  5017  3973  3974    1
  5018  3973  4016   un
  5019  3975  3979   un
  5020  3976  3977   un
  5021  3976  3979   un
  5022  3976  3995   un
  5023  3977  3978    1
  5024  3977  4006   un
  5025  3979  3994   un
  5026  3981  3982    1
  5027  3981  4007   un
  5028  3984  3985    1
  5029  3984  4008   un
  5030  3986  3990   un
  5031  3987  3988   un
  5032  3987  3990   un
  5033  3987  3992   un
  5034  3988  3989    1
  5035  3988  4005   un
  5036  3990  3991   un
  5037  3992  3993    1
  5038  3992  4010   un
  5039  3995  3996    1
  5040  3995  4011   un
  5041  4021  4022   un
  5042  4021  4026    1
  5043  4021  4028   un
  5044  4021  4032    1
  5045  4021  4034   un
  5046  4021  4046   un
  5047  4021  4058   un
  5048  4021  4069   un
  5049  4021  4089   un
  5050  4021  4092    1
  5051  4021  4093   un
  5052  4021  4096    1
  5053  4022  4027   un
  5054  4023  4024   un
  5055  4023  4027   un
  5056  4023  4115   un
  5057  4024  4025    1
  5058  4024  4146   un
  5059  4026  4046    1
  5060  4026  4069    1
  5061  4027  4114   un
  5062  4028  4033   un
  5063  4029  4030   un
  5064  4029  4033   un
  5065  4029  4118   un
  5066  4030  4031    1
  5067  4030  4143   un
  5068  4032  4034    1
  5069  4032  4058    1
  5070  4033  4117   un
  5071  4034  4035   un
  5072  4034  4039    1
  5073  4034  4041   un
  5074  4034  4058   un
  5075  4034  4069   un
  5076  4034  4080   un
  5077  4034  4088    1
  5078  4034  4096    1
  5079  4034  4109   un
  5080  4034  4114   un
  5081  4035  4040   un
  5082  4036  4037   un
  5083  4036  4040   un
  5084  4036  4098   un
  5085  4037  4038    1
  5086  4037  4153   un
  5087  4039  4069    1
  5088  4039  4080    1
  5089  4040  4097   un
  5090  4041  4045   un
  5091  4042  4043   un
  5092  4042  4045   un
  5093  4042  4107   un
  5094  4043  4044    1
  5095  4043  4152   un
  5096  4045  4106   un
  5097  4046  4047   un
  5098  4046  4051    1
  5099  4046  4053   un
  5100  4046  4058   un
  5101  4046  4069   un
  5102  4046  4080   un
  5103  4046  4084    1
  5104  4046  4092    1
  5105  4046  4117   un
  5106  4046  4120   un
  5107  4047  4052   un
  5108  4048  4049   un
  5109  4048  4052   un
  5110  4048  4104   un
  5111  4049  4050    1
  5112  4049  4151   un
  5113  4051  4058    1
  5114  4051  4080    1
  5115  4052  4103   un
  5116  4053  4057   un
  5117  4054  4055   un
  5118  4054  4057   un
  5119  4054  4101   un
  5120  4055  4056    1
  5121  4055  4154   un
  5122  4057  4100   un
  5123  4058  4059   un
  5124  4058  4064   un
  5125  4058  4080   un
  5126  4058  4088    1
  5127  4058  4092    1
  5128  4058  4097   un
  5129  4058  4100   un
  5130  4059  4063   un
  5131  4060  4061   un
  5132  4060  4063   un
  5133  4060  4094   un
  5134  4061  4062    1
  5135  4061  4136   un
  5136  4063  4093   un
  5137  4064  4068   un
  5138  4065  4066   un
  5139  4065  4068   un
  5140  4065  4082   un
  5141  4066  4067    1
  5142  4066  4137   un
  5143  4068  4081   un
  5144  4069  4070   un
  5145  4069  4075   un
  5146  4069  4080   un
  5147  4069  4084    1
  5148  4069  4096    1
  5149  4069  4103   un
  5150  4069  4106   un
  5151  4070  4074   un
  5152  4071  4072   un
  5153  4071  4074   un
  5154  4071  4086   un
  5155  4072  4073    1
  5156  4072  4138   un
  5157  4074  4085   un
  5158  4075  4079   un
  5159  4076  4077   un
  5160  4076  4079   un
  5161  4076  4090   un
  5162  4077  4078    1
  5163  4077  4135   un
  5164  4079  4089   un
  5165  4080  4081   un
  5166  4080  4084    1
  5167  4080  4085   un
  5168  4080  4088    1
  5169  4080  4125   un
  5170  4080  4128   un
  5171  4082  4083    1
  5172  4082  4134   un
  5173  4086  4087    1
  5174  4086  4131   un
  5175  4090  4091    1
  5176  4090  4132   un
  5177  4094  4095    1
  5178  4094  4133   un
  5179  4098  4099    1
  5180  4098  4149   un
  5181  4101  4102    1
  5182  4101  4148   un
  5183  4104  4105    1
  5184  4104  4147   un
  5185  4107  4108    1
  5186  4107  4150   un
  5187  4109  4113   un
  5188  4110  4111   un
  5189  4110  4113   un
  5190  4110  4129   un
  5191  4111  4112    1
  5192  4111  4140   un
  5193  4113  4128   un
  5194  4115  4116    1
  5195  4115  4141   un
  5196  4118  4119    1
  5197  4118  4142   un
  5198  4120  4124   un
  5199  4121  4122   un
  5200  4121  4124   un
  5201  4121  4126   un
  5202  4122  4123    1
  5203  4122  4139   un
  5204  4124  4125   un
  5205  4126  4127    1
  5206  4126  4144   un
  5207  4129  4130    1
  5208  4129  4145   un
  5209  4155  4156   un
  5210  4155  4160    1
  5211  4155  4162   un
  5212  4155  4166    1
  5213  4155  4168   un
  5214  4155  4180   un
  5215  4155  4192   un
  5216  4155  4203   un
  5217  4155  4223   un
  5218  4155  4226    1
  5219  4155  4227   un
  5220  4155  4230    1
  5221  4156  4161   un
  5222  4157  4158   un
  5223  4157  4161   un
  5224  4157  4249   un
  5225  4158  4159    1
  5226  4158  4280   un
  5227  4160  4180    1
  5228  4160  4203    1
  5229  4161  4248   un
  5230  4162  4167   un
  5231  4163  4164   un
  5232  4163  4167   un
  5233  4163  4252   un
  5234  4164  4165    1
  5235  4164  4277   un
  5236  4166  4168    1
  5237  4166  4192    1
  5238  4167  4251   un
  5239  4168  4169   un
  5240  4168  4173    1
  5241  4168  4175   un
  5242  4168  4192   un
  5243  4168  4203   un
  5244  4168  4214   un
  5245  4168  4222    1
  5246  4168  4230    1
  5247  4168  4243   un
  5248  4168  4248   un
  5249  4169  4174   un
  5250  4170  4171   un
  5251  4170  4174   un
  5252  4170  4232   un
  5253  4171  4172    1
  5254  4171  4287   un
  5255  4173  4203    1
  5256  4173  4214    1
  5257  4174  4231   un
  5258  4175  4179   un
  5259  4176  4177   un
  5260  4176  4179   un
  5261  4176  4241   un
  5262  4177  4178    1
  5263  4177  4286   un
  5264  4179  4240   un
  5265  4180  4181   un
  5266  4180  4185    1
  5267  4180  4187   un
  5268  4180  4192   un
  5269  4180  4203   un
  5270  4180  4214   un
  5271  4180  4218    1
  5272  4180  4226    1
  5273  4180  4251   un
  5274  4180  4254   un
  5275  4181  4186   un
  5276  4182  4183   un
  5277  4182  4186   un
  5278  4182  4238   un
  5279  4183  4184    1
  5280  4183  4285   un
  5281  4185  4192    1
  5282  4185  4214    1
  5283  4186  4237   un
  5284  4187  4191   un
  5285  4188  4189   un
  5286  4188  4191   un
  5287  4188  4235   un
  5288  4189  4190    1
  5289  4189  4288   un
  5290  4191  4234   un
  5291  4192  4193   un
  5292  4192  4198   un
  5293  4192  4214   un
  5294  4192  4222    1
  5295  4192  4226    1
  5296  4192  4231   un
  5297  4192  4234   un
  5298  4193  4197   un
  5299  4194  4195   un
  5300  4194  4197   un
  5301  4194  4228   un
  5302  4195  4196    1
  5303  4195  4270   un
  5304  4197  4227   un
  5305  4198  4202   un
  5306  4199  4200   un
  5307  4199  4202   un
  5308  4199  4216   un
  5309  4200  4201    1
  5310  4200  4271   un
  5311  4202  4215   un
  5312  4203  4204   un
  5313  4203  4209   un
  5314  4203  4214   un
  5315  4203  4218    1
  5316  4203  4230    1
  5317  4203  4237   un
  5318  4203  4240   un
  5319  4204  4208   un
  5320  4205  4206   un
  5321  4205  4208   un
  5322  4205  4220   un
  5323  4206  4207    1
  5324  4206  4272   un
  5325  4208  4219   un
  5326  4209  4213   un
  5327  4210  4211   un
  5328  4210  4213   un
  5329  4210  4224   un
  5330  4211  4212    1
  5331  4211  4269   un
  5332  4213  4223   un
  5333  4214  4215   un
  5334  4214  4218    1
  5335  4214  4219   un
  5336  4214  4222    1
  5337  4214  4259   un
  5338  4214  4262   un
  5339  4216  4217    1
  5340  4216  4268   un
  5341  4220  4221    1
  5342  4220  4265   un
  5343  4224  4225    1
  5344  4224  4266   un
  5345  4228  4229    1
  5346  4228  4267   un
  5347  4232  4233    1
  5348  4232  4283   un
  5349  4235  4236    1
  5350  4235  4282   un
  5351  4238  4239    1
  5352  4238  4281   un
  5353  4241  4242    1
  5354  4241  4284   un
  5355  4243  4247   un
  5356  4244  4245   un
  5357  4244  4247   un
  5358  4244  4263   un
  5359  4245  4246    1
  5360  4245  4274   un
  5361  4247  4262   un
  5362  4249  4250    1
  5363  4249  4275   un
  5364  4252  4253    1
  5365  4252  4276   un
  5366  4254  4258   un
  5367  4255  4256   un
  5368  4255  4258   un
  5369  4255  4260   un
  5370  4256  4257    1
  5371  4256  4273   un
  5372  4258  4259   un
  5373  4260  4261    1
  5374  4260  4278   un
  5375  4263  4264    1
  5376  4263  4279   un
  5377  4289  4290   un
  5378  4289  4294    1
  5379  4289  4296   un
  5380  4289  4300    1
  5381  4289  4302   un
  5382  4289  4314   un
  5383  4289  4326   un
  5384  4289  4337   un
  5385  4289  4357   un
  5386  4289  4360    1
  5387  4289  4361   un
  5388  4289  4364    1
  5389  4290  4295   un
  5390  4291  4292   un
  5391  4291  4295   un
  5392  4291  4383   un
  5393  4292  4293    1
  5394  4292  4414   un
  5395  4294  4314    1
  5396  4294  4337    1
  5397  4295  4382   un
  5398  4296  4301   un
  5399  4297  4298   un
  5400  4297  4301   un
  5401  4297  4386   un
  5402  4298  4299    1
  5403  4298  4411   un
  5404  4300  4302    1
  5405  4300  4326    1
  5406  4301  4385   un
  5407  4302  4303   un
  5408  4302  4307    1
  5409  4302  4309   un
  5410  4302  4326   un
  5411  4302  4337   un
  5412  4302  4348   un
  5413  4302  4356    1
  5414  4302  4364    1
  5415  4302  4377   un
  5416  4302  4382   un
  5417  4303  4308   un
  5418  4304  4305   un
  5419  4304  4308   un
  5420  4304  4366   un
  5421  4305  4306    1
  5422  4305  4421   un
  5423  4307  4337    1
  5424  4307  4348    1
  5425  4308  4365   un
  5426  4309  4313   un
  5427  4310  4311   un
  5428  4310  4313   un
  5429  4310  4375   un
  5430  4311  4312    1
  5431  4311  4420   un
  5432  4313  4374   un
  5433  4314  4315   un
  5434  4314  4319    1
  5435  4314  4321   un
  5436  4314  4326   un
  5437  4314  4337   un
  5438  4314  4348   un
  5439  4314  4352    1
  5440  4314  4360    1
  5441  4314  4385   un
  5442  4314  4388   un
  5443  4315  4320   un
  5444  4316  4317   un
  5445  4316  4320   un
  5446  4316  4372   un
  5447  4317  4318    1
  5448  4317  4419   un
  5449  4319  4326    1
  5450  4319  4348    1
  5451  4320  4371   un
  5452  4321  4325   un
  5453  4322  4323   un
  5454  4322  4325   un
  5455  4322  4369   un
  5456  4323  4324    1
  5457  4323  4422   un
  5458  4325  4368   un
  5459  4326  4327   un
  5460  4326  4332   un
  5461  4326  4348   un
  5462  4326  4356    1
  5463  4326  4360    1
  5464  4326  4365   un
  5465  4326  4368   un
  5466  4327  4331   un
  5467  4328  4329   un
  5468  4328  4331   un
  5469  4328  4362   un
  5470  4329  4330    1
  5471  4329  4404   un
  5472  4331  4361   un
  5473  4332  4336   un
  5474  4333  4334   un
  5475  4333  4336   un
  5476  4333  4350   un
  5477  4334  4335    1
  5478  4334  4405   un
  5479  4336  4349   un
  5480  4337  4338   un
  5481  4337  4343   un
  5482  4337  4348   un
  5483  4337  4352    1
  5484  4337  4364    1
  5485  4337  4371   un
  5486  4337  4374   un
  5487  4338  4342   un
  5488  4339  4340   un
  5489  4339  4342   un
  5490  4339  4354   un
  5491  4340  4341    1
  5492  4340  4406   un
  5493  4342  4353   un
  5494  4343  4347   un
  5495  4344  4345   un
  5496  4344  4347   un
  5497  4344  4358   un
  5498  4345  4346    1
  5499  4345  4403   un
  5500  4347  4357   un
  5501  4348  4349   un
  5502  4348  4352    1
  5503  4348  4353   un
  5504  4348  4356    1
  5505  4348  4393   un
  5506  4348  4396   un
  5507  4350  4351    1
  5508  4350  4402   un
  5509  4354  4355    1
  5510  4354  4399   un
  5511  4358  4359    1
  5512  4358  4400   un
  5513  4362  4363    1
  5514  4362  4401   un
  5515  4366  4367    1
  5516  4366  4417   un
  5517  4369  4370    1
  5518  4369  4416   un
  5519  4372  4373    1
  5520  4372  4415   un
  5521  4375  4376    1
  5522  4375  4418   un
  5523  4377  4381   un
  5524  4378  4379   un
  5525  4378  4381   un
  5526  4378  4397   un
  5527  4379  4380    1
  5528  4379  4408   un
  5529  4381  4396   un
  5530  4383  4384    1
  5531  4383  4409   un
  5532  4386  4387    1
  5533  4386  4410   un
  5534  4388  4392   un
  5535  4389  4390   un
  5536  4389  4392   un
  5537  4389  4394   un
  5538  4390  4391    1
  5539  4390  4407   un
  5540  4392  4393   un
  5541  4394  4395    1
  5542  4394  4412   un
  5543  4397  4398    1
  5544  4397  4413   un
  5545  4423  4424   un
  5546  4423  4428    1
  5547  4423  4430   un
  5548  4423  4434    1
  5549  4423  4436   un
  5550  4423  4448   un
  5551  4423  4460   un
  5552  4423  4471   un
  5553  4423  4491   un
  5554  4423  4494    1
  5555  4423  4495   un
  5556  4423  4498    1
  5557  4424  4429   un
  5558  4425  4426   un
  5559  4425  4429   un
  5560  4425  4517   un
  5561  4426  4427    1
  5562  4426  4548   un
  5563  4428  4448    1
  5564  4428  4471    1
  5565  4429  4516   un
  5566  4430  4435   un
  5567  4431  4432   un
  5568  4431  4435   un
  5569  4431  4520   un
  5570  4432  4433    1
  5571  4432  4545   un
  5572  4434  4436    1
  5573  4434  4460    1
  5574  4435  4519   un
  5575  4436  4437   un
  5576  4436  4441    1
  5577  4436  4443   un
  5578  4436  4460   un
  5579  4436  4471   un
  5580  4436  4482   un
  5581  4436  4490    1
  5582  4436  4498    1
  5583  4436  4511   un
  5584  4436  4516   un
  5585  4437  4442   un
  5586  4438  4439   un
  5587  4438  4442   un
  5588  4438  4500   un
  5589  4439  4440    1
  5590  4439  4555   un
  5591  4441  4471    1
  5592  4441  4482    1
  5593  4442  4499   un
  5594  4443  4447   un
  5595  4444  4445   un
  5596  4444  4447   un
  5597  4444  4509   un
  5598  4445  4446    1
  5599  4445  4554   un
  5600  4447  4508   un
  5601  4448  4449   un
  5602  4448  4453    1
  5603  4448  4455   un
  5604  4448  4460   un
  5605  4448  4471   un
  5606  4448  4482   un
  5607  4448  4486    1
  5608  4448  4494    1
  5609  4448  4519   un
  5610  4448  4522   un
  5611  4449  4454   un
  5612  4450  4451   un
  5613  4450  4454   un
  5614  4450  4506   un
  5615  4451  4452    1
  5616  4451  4553   un
  5617  4453  4460    1
  5618  4453  4482    1
  5619  4454  4505   un
  5620  4455  4459   un
  5621  4456  4457   un
  5622  4456  4459   un
  5623  4456  4503   un
  5624  4457  4458    1
  5625  4457  4556   un
  5626  4459  4502   un
  5627  4460  4461   un
  5628  4460  4466   un
  5629  4460  4482   un
  5630  4460  4490    1
  5631  4460  4494    1
  5632  4460  4499   un
  5633  4460  4502   un
  5634  4461  4465   un
  5635  4462  4463   un
  5636  4462  4465   un
  5637  4462  4496   un
  5638  4463  4464    1
  5639  4463  4538   un
  5640  4465  4495   un
  5641  4466  4470   un
  5642  4467  4468   un
  5643  4467  4470   un
  5644  4467  4484   un
  5645  4468  4469    1
  5646  4468  4539   un
  5647  4470  4483   un
  5648  4471  4472   un
  5649  4471  4477   un
  5650  4471  4482   un
  5651  4471  4486    1
  5652  4471  4498    1
  5653  4471  4505   un
  5654  4471  4508   un
  5655  4472  4476   un
  5656  4473  4474   un
  5657  4473  4476   un
  5658  4473  4488   un
  5659  4474  4475    1
  5660  4474  4540   un
  5661  4476  4487   un
  5662  4477  4481   un
  5663  4478  4479   un
  5664  4478  4481   un
  5665  4478  4492   un
  5666  4479  4480    1
  5667  4479  4537   un
  5668  4481  4491   un
  5669  4482  4483   un
  5670  4482  4486    1
  5671  4482  4487   un
  5672  4482  4490    1
  5673  4482  4527   un
  5674  4482  4530   un
  5675  4484  4485    1
  5676  4484  4536   un
  5677  4488  4489    1
  5678  4488  4533   un
  5679  4492  4493    1
  5680  4492  4534   un
  5681  4496  4497    1
  5682  4496  4535   un
  5683  4500  4501    1
  5684  4500  4551   un
  5685  4503  4504    1
  5686  4503  4550   un
  5687  4506  4507    1
  5688  4506  4549   un
  5689  4509  4510    1
  5690  4509  4552   un
  5691  4511  4515   un
  5692  4512  4513   un
  5693  4512  4515   un
  5694  4512  4531   un
  5695  4513  4514    1
  5696  4513  4542   un
  5697  4515  4530   un
  5698  4517  4518    1
  5699  4517  4543   un
  5700  4520  4521    1
  5701  4520  4544   un
  5702  4522  4526   un
  5703  4523  4524   un
  5704  4523  4526   un
  5705  4523  4528   un
  5706  4524  4525    1
  5707  4524  4541   un
  5708  4526  4527   un
  5709  4528  4529    1
  5710  4528  4546   un
  5711  4531  4532    1
  5712  4531  4547   un
  5713  4557  4558   un
  5714  4557  4562    1
  5715  4557  4564   un
  5716  4557  4568    1
  5717  4557  4570   un
  5718  4557  4582   un
  5719  4557  4594   un
  5720  4557  4605   un
  5721  4557  4625   un
  5722  4557  4628    1
  5723  4557  4629   un
  5724  4557  4632    1
  5725  4558  4563   un
  5726  4559  4560   un
  5727  4559  4563   un
  5728  4559  4651   un
  5729  4560  4561    1
  5730  4560  4682   un
  5731  4562  4582    1
  5732  4562  4605    1
  5733  4563  4650   un
  5734  4564  4569   un
  5735  4565  4566   un
  5736  4565  4569   un
  5737  4565  4654   un
  5738  4566  4567    1
  5739  4566  4679   un
  5740  4568  4570    1
  5741  4568  4594    1
  5742  4569  4653   un
  5743  4570  4571   un
  5744  4570  4575    1
  5745  4570  4577   un
  5746  4570  4594   un
  5747  4570  4605   un
  5748  4570  4616   un
  5749  4570  4624    1
  5750  4570  4632    1
  5751  4570  4645   un
  5752  4570  4650   un
  5753  4571  4576   un
  5754  4572  4573   un
  5755  4572  4576   un
  5756  4572  4634   un
  5757  4573  4574    1
  5758  4573  4689   un
  5759  4575  4605    1
  5760  4575  4616    1
  5761  4576  4633   un
  5762  4577  4581   un
  5763  4578  4579   un
  5764  4578  4581   un
  5765  4578  4643   un
  5766  4579  4580    1
  5767  4579  4688   un
  5768  4581  4642   un
  5769  4582  4583   un
  5770  4582  4587    1
  5771  4582  4589   un
  5772  4582  4594   un
  5773  4582  4605   un
  5774  4582  4616   un
  5775  4582  4620    1
  5776  4582  4628    1
  5777  4582  4653   un
  5778  4582  4656   un
  5779  4583  4588   un
  5780  4584  4585   un
  5781  4584  4588   un
  5782  4584  4640   un
  5783  4585  4586    1
  5784  4585  4687   un
  5785  4587  4594    1
  5786  4587  4616    1
  5787  4588  4639   un
  5788  4589  4593   un
  5789  4590  4591   un
  5790  4590  4593   un
  5791  4590  4637   un
  5792  4591  4592    1
  5793  4591  4690   un
  5794  4593  4636   un
  5795  4594  4595   un
  5796  4594  4600   un
  5797  4594  4616   un
  5798  4594  4624    1
  5799  4594  4628    1
  5800  4594  4633   un
  5801  4594  4636   un
  5802  4595  4599   un
  5803  4596  4597   un
  5804  4596  4599   un
  5805  4596  4630   un
  5806  4597  4598    1
  5807  4597  4672   un
  5808  4599  4629   un
  5809  4600  4604   un
  5810  4601  4602   un
  5811  4601  4604   un
  5812  4601  4618   un
  5813  4602  4603    1
  5814  4602  4673   un
  5815  4604  4617   un
  5816  4605  4606   un
  5817  4605  4611   un
  5818  4605  4616   un
  5819  4605  4620    1
  5820  4605  4632    1
  5821  4605  4639   un
  5822  4605  4642   un
  5823  4606  4610   un
  5824  4607  4608   un
  5825  4607  4610   un
  5826  4607  4622   un
  5827  4608  4609    1
  5828  4608  4674   un
  5829  4610  4621   un
  5830  4611  4615   un
  5831  4612  4613   un
  5832  4612  4615   un
  5833  4612  4626   un
  5834  4613  4614    1
  5835  4613  4671   un
  5836  4615  4625   un
  5837  4616  4617   un
  5838  4616  4620    1
  5839  4616  4621   un
  5840  4616  4624    1
  5841  4616  4661   un
  5842  4616  4664   un
  5843  4618  4619    1
  5844  4618  4670   un
  5845  4622  4623    1
  5846  4622  4667   un
  5847  4626  4627    1
  5848  4626  4668   un
  5849  4630  4631    1
  5850  4630  4669   un
  5851  4634  4635    1
  5852  4634  4685   un
  5853  4637  4638    1
  5854  4637  4684   un
  5855  4640  4641    1
  5856  4640  4683   un
  5857  4643  4644    1
  5858  4643  4686   un
  5859  4645  4649   un
  5860  4646  4647   un
  5861  4646  4649   un
  5862  4646  4665   un
  5863  4647  4648    1
  5864  4647  4676   un
  5865  4649  4664   un
  5866  4651  4652    1
  5867  4651  4677   un
  5868  4654  4655    1
  5869  4654  4678   un
  5870  4656  4660   un
  5871  4657  4658   un
  5872  4657  4660   un
  5873  4657  4662   un
  5874  4658  4659    1
  5875  4658  4675   un
  5876  4660  4661   un
  5877  4662  4663    1
  5878  4662  4680   un
  5879  4665  4666    1
  5880  4665  4681   un
  5881  4691  4692   un
  5882  4691  4696    1
  5883  4691  4698   un
  5884  4691  4702    1
  5885  4691  4704   un
  5886  4691  4716   un
  5887  4691  4728   un
  5888  4691  4739   un
  5889  4691  4759   un
  5890  4691  4762    1
  5891  4691  4763   un
  5892  4691  4766    1
  5893  4692  4697   un
  5894  4693  4694   un
  5895  4693  4697   un
  5896  4693  4785   un
  5897  4694  4695    1
  5898  4694  4816   un
  5899  4696  4716    1
  5900  4696  4739    1
  5901  4697  4784   un
  5902  4698  4703   un
  5903  4699  4700   un
  5904  4699  4703   un
  5905  4699  4788   un
  5906  4700  4701    1
  5907  4700  4813   un
  5908  4702  4704    1
  5909  4702  4728    1
  5910  4703  4787   un
  5911  4704  4705   un
  5912  4704  4709    1
  5913  4704  4711   un
  5914  4704  4728   un
  5915  4704  4739   un
  5916  4704  4750   un
  5917  4704  4758    1
  5918  4704  4766    1
  5919  4704  4779   un
  5920  4704  4784   un
  5921  4705  4710   un
  5922  4706  4707   un
  5923  4706  4710   un
  5924  4706  4768   un
  5925  4707  4708    1
  5926  4707  4823   un
  5927  4709  4739    1
  5928  4709  4750    1
  5929  4710  4767   un
  5930  4711  4715   un
  5931  4712  4713   un
  5932  4712  4715   un
  5933  4712  4777   un
  5934  4713  4714    1
  5935  4713  4822   un
  5936  4715  4776   un
  5937  4716  4717   un
  5938  4716  4721    1
  5939  4716  4723   un
  5940  4716  4728   un
  5941  4716  4739   un
  5942  4716  4750   un
  5943  4716  4754    1
  5944  4716  4762    1
  5945  4716  4787   un
  5946  4716  4790   un
  5947  4717  4722   un
  5948  4718  4719   un
  5949  4718  4722   un
  5950  4718  4774   un
  5951  4719  4720    1
  5952  4719  4821   un
  5953  4721  4728    1
  5954  4721  4750    1
  5955  4722  4773   un
  5956  4723  4727   un
  5957  4724  4725   un
  5958  4724  4727   un
  5959  4724  4771   un
  5960  4725  4726    1
  5961  4725  4824   un
  5962  4727  4770   un
  5963  4728  4729   un
  5964  4728  4734   un
  5965  4728  4750   un
  5966  4728  4758    1
  5967  4728  4762    1
  5968  4728  4767   un
  5969  4728  4770   un
  5970  4729  4733   un
  5971  4730  4731   un
  5972  4730  4733   un
  5973  4730  4764   un
  5974  4731  4732    1
  5975  4731  4806   un
  5976  4733  4763   un
  5977  4734  4738   un
  5978  4735  4736   un
  5979  4735  4738   un
  5980  4735  4752   un
  5981  4736  4737    1
  5982  4736  4807   un
  5983  4738  4751   un
  5984  4739  4740   un
  5985  4739  4745   un
  5986  4739  4750   un
  5987  4739  4754    1
  5988  4739  4766    1
  5989  4739  4773   un
  5990  4739  4776   un
  5991  4740  4744   un
  5992  4741  4742   un
  5993  4741  4744   un
  5994  4741  4756   un
  5995  4742  4743    1
  5996  4742  4808   un
  5997  4744  4755   un
  5998  4745  4749   un
  5999  4746  4747   un
  6000  4746  4749   un
  6001  4746  4760   un
  6002  4747  4748    1
  6003  4747  4805   un
  6004  4749  4759   un
  6005  4750  4751   un
  6006  4750  4754    1
  6007  4750  4755   un
  6008  4750  4758    1
  6009  4750  4795   un
  6010  4750  4798   un
  6011  4752  4753    1
  6012  4752  4804   un
  6013  4756  4757    1
  6014  4756  4801   un
  6015  4760  4761    1
  6016  4760  4802   un
  6017  4764  4765    1
  6018  4764  4803   un
  6019  4768  4769    1
  6020  4768  4819   un
  6021  4771  4772    1
  6022  4771  4818   un
  6023  4774  4775    1
  6024  4774  4817   un
  6025  4777  4778    1
  6026  4777  4820   un
  6027  4779  4783   un
  6028  4780  4781   un
  6029  4780  4783   un
  6030  4780  4799   un
  6031  4781  4782    1
  6032  4781  4810   un
  6033  4783  4798   un
  6034  4785  4786    1
  6035  4785  4811   un
  6036  4788  4789    1
  6037  4788  4812   un
  6038  4790  4794   un
  6039  4791  4792   un
  6040  4791  4794   un
  6041  4791  4796   un
  6042  4792  4793    1
  6043  4792  4809   un
  6044  4794  4795   un
  6045  4796  4797    1
  6046  4796  4814   un
  6047  4799  4800    1
  6048  4799  4815   un
  6049  4825  4826   un
  6050  4825  4830    1
  6051  4825  4832   un
  6052  4825  4836    1
  6053  4825  4838   un
  6054  4825  4850   un
  6055  4825  4862   un
  6056  4825  4873   un
  6057  4825  4893   un
  6058  4825  4896    1
  6059  4825  4897   un
  6060  4825  4900    1
  6061  4826  4831   un
  6062  4827  4828   un
  6063  4827  4831   un
  6064  4827  4919   un
  6065  4828  4829    1
  6066  4828  4950   un
  6067  4830  4850    1
  6068  4830  4873    1
  6069  4831  4918   un
  6070  4832  4837   un
  6071  4833  4834   un
  6072  4833  4837   un
  6073  4833  4922   un
  6074  4834  4835    1
  6075  4834  4947   un
  6076  4836  4838    1
  6077  4836  4862    1
  6078  4837  4921   un
  6079  4838  4839   un
  6080  4838  4843    1
  6081  4838  4845   un
  6082  4838  4862   un
  6083  4838  4873   un
  6084  4838  4884   un
  6085  4838  4892    1
  6086  4838  4900    1
  6087  4838  4913   un
  6088  4838  4918   un
  6089  4839  4844   un
  6090  4840  4841   un
  6091  4840  4844   un
  6092  4840  4902   un
  6093  4841  4842    1
  6094  4841  4957   un
  6095  4843  4873    1
  6096  4843  4884    1
  6097  4844  4901   un
  6098  4845  4849   un
  6099  4846  4847   un
  6100  4846  4849   un
  6101  4846  4911   un
  6102  4847  4848    1
  6103  4847  4956   un
  6104  4849  4910   un
  6105  4850  4851   un
  6106  4850  4855    1
  6107  4850  4857   un
  6108  4850  4862   un
  6109  4850  4873   un
  6110  4850  4884   un
  6111  4850  4888    1
  6112  4850  4896    1
  6113  4850  4921   un
  6114  4850  4924   un
  6115  4851  4856   un
  6116  4852  4853   un
  6117  4852  4856   un
  6118  4852  4908   un
  6119  4853  4854    1
  6120  4853  4955   un
  6121  4855  4862    1
  6122  4855  4884    1
  6123  4856  4907   un
  6124  4857  4861   un
  6125  4858  4859   un
  6126  4858  4861   un
  6127  4858  4905   un
  6128  4859  4860    1
  6129  4859  4958   un
  6130  4861  4904   un
  6131  4862  4863   un
  6132  4862  4868   un
  6133  4862  4884   un
  6134  4862  4892    1
  6135  4862  4896    1
  6136  4862  4901   un
  6137  4862  4904   un
  6138  4863  4867   un
  6139  4864  4865   un
  6140  4864  4867   un
  6141  4864  4898   un
  6142  4865  4866    1
  6143  4865  4940   un
  6144  4867  4897   un
  6145  4868  4872   un
  6146  4869  4870   un
  6147  4869  4872   un
  6148  4869  4886   un
  6149  4870  4871    1
  6150  4870  4941   un
  6151  4872  4885   un
  6152  4873  4874   un
  6153  4873  4879   un
  6154  4873  4884   un
  6155  4873  4888    1
  6156  4873  4900    1
  6157  4873  4907   un
  6158  4873  4910   un
  6159  4874  4878   un
  6160  4875  4876   un
  6161  4875  4878   un
  6162  4875  4890   un
  6163  4876  4877    1
  6164  4876  4942   un
  6165  4878  4889   un
  6166  4879  4883   un
  6167  4880  4881   un
  6168  4880  4883   un
  6169  4880  4894   un
  6170  4881  4882    1
  6171  4881  4939   un
  6172  4883  4893   un
  6173  4884  4885   un
  6174  4884  4888    1
  6175  4884  4889   un
  6176  4884  4892    1
  6177  4884  4929   un
  6178  4884  4932   un
  6179  4886  4887    1
  6180  4886  4938   un
  6181  4890  4891    1
  6182  4890  4935   un
  6183  4894  4895    1
  6184  4894  4936   un
  6185  4898  4899    1
  6186  4898  4937   un
  6187  4902  4903    1
  6188  4902  4953   un
  6189  4905  4906    1
  6190  4905  4952   un
  6191  4908  4909    1
  6192  4908  4951   un
  6193  4911  4912    1
  6194  4911  4954   un
  6195  4913  4917   un
  6196  4914  4915   un
  6197  4914  4917   un
  6198  4914  4933   un
  6199  4915  4916    1
  6200  4915  4944   un
  6201  4917  4932   un
  6202  4919  4920    1
  6203  4919  4945   un
  6204  4922  4923    1
  6205  4922  4946   un
  6206  4924  4928   un
  6207  4925  4926   un
  6208  4925  4928   un
  6209  4925  4930   un
  6210  4926  4927    1
  6211  4926  4943   un
  6212  4928  4929   un
  6213  4930  4931    1
  6214  4930  4948   un
  6215  4933  4934    1
  6216  4933  4949   un
  6217  4959  4960   un
  6218  4959  4964    1
  6219  4959  4966   un
  6220  4959  4970    1
  6221  4959  4972   un
  6222  4959  4984   un
  6223  4959  4996   un
  6224  4959  5007   un
  6225  4959  5027   un
  6226  4959  5030    1
  6227  4959  5031   un
  6228  4959  5034    1
  6229  4960  4965   un
  6230  4961  4962   un
  6231  4961  4965   un
  6232  4961  5053   un
  6233  4962  4963    1
  6234  4962  5084   un
  6235  4964  4984    1
  6236  4964  5007    1
  6237  4965  5052   un
  6238  4966  4971   un
  6239  4967  4968   un
  6240  4967  4971   un
  6241  4967  5056   un
  6242  4968  4969    1
  6243  4968  5081   un
  6244  4970  4972    1
  6245  4970  4996    1
  6246  4971  5055   un
  6247  4972  4973   un
  6248  4972  4977    1
  6249  4972  4979   un
  6250  4972  4996   un
  6251  4972  5007   un
  6252  4972  5018   un
  6253  4972  5026    1
  6254  4972  5034    1
  6255  4972  5047   un
  6256  4972  5052   un
  6257  4973  4978   un
  6258  4974  4975   un
  6259  4974  4978   un
  6260  4974  5036   un
  6261  4975  4976    1
  6262  4975  5091   un
  6263  4977  5007    1
  6264  4977  5018    1
  6265  4978  5035   un
  6266  4979  4983   un
  6267  4980  4981   un
  6268  4980  4983   un
  6269  4980  5045   un
  6270  4981  4982    1
  6271  4981  5090   un
  6272  4983  5044   un
  6273  4984  4985   un
  6274  4984  4989    1
  6275  4984  4991   un
  6276  4984  4996   un
  6277  4984  5007   un
  6278  4984  5018   un
  6279  4984  5022    1
  6280  4984  5030    1
  6281  4984  5055   un
  6282  4984  5058   un
  6283  4985  4990   un
  6284  4986  4987   un
  6285  4986  4990   un
  6286  4986  5042   un
  6287  4987  4988    1
  6288  4987  5089   un
  6289  4989  4996    1
  6290  4989  5018    1
  6291  4990  5041   un
  6292  4991  4995   un
  6293  4992  4993   un
  6294  4992  4995   un
  6295  4992  5039   un
  6296  4993  4994    1
  6297  4993  5092   un
  6298  4995  5038   un
  6299  4996  4997   un
  6300  4996  5002   un
  6301  4996  5018   un
  6302  4996  5026    1
  6303  4996  5030    1
  6304  4996  5035   un
  6305  4996  5038   un
  6306  4997  5001   un
  6307  4998  4999   un
  6308  4998  5001   un
  6309  4998  5032   un
  6310  4999  5000    1
  6311  4999  5074   un
  6312  5001  5031   un
  6313  5002  5006   un
  6314  5003  5004   un
  6315  5003  5006   un
  6316  5003  5020   un
  6317  5004  5005    1
  6318  5004  5075   un
  6319  5006  5019   un
  6320  5007  5008   un
  6321  5007  5013   un
  6322  5007  5018   un
  6323  5007  5022    1
  6324  5007  5034    1
  6325  5007  5041   un
  6326  5007  5044   un
  6327  5008  5012   un
  6328  5009  5010   un
  6329  5009  5012   un
  6330  5009  5024   un
  6331  5010  5011    1
  6332  5010  5076   un
  6333  5012  5023   un
  6334  5013  5017   un
  6335  5014  5015   un
  6336  5014  5017   un
  6337  5014  5028   un
  6338  5015  5016    1
  6339  5015  5073   un
  6340  5017  5027   un
  6341  5018  5019   un
  6342  5018  5022    1
  6343  5018  5023   un
  6344  5018  5026    1
  6345  5018  5063   un
  6346  5018  5066   un
  6347  5020  5021    1
  6348  5020  5072   un
  6349  5024  5025    1
  6350  5024  5069   un
  6351  5028  5029    1
  6352  5028  5070   un
  6353  5032  5033    1
  6354  5032  5071   un
  6355  5036  5037    1
  6356  5036  5087   un
  6357  5039  5040    1
  6358  5039  5086   un
  6359  5042  5043    1
  6360  5042  5085   un
  6361  5045  5046    1
  6362  5045  5088   un
  6363  5047  5051   un
  6364  5048  5049   un
  6365  5048  5051   un
  6366  5048  5067   un
  6367  5049  5050    1
  6368  5049  5078   un
  6369  5051  5066   un
  6370  5053  5054    1
  6371  5053  5079   un
  6372  5056  5057    1
  6373  5056  5080   un
  6374  5058  5062   un
  6375  5059  5060   un
  6376  5059  5062   un
  6377  5059  5064   un
  6378  5060  5061    1
  6379  5060  5077   un
  6380  5062  5063   un
  6381  5064  5065    1
  6382  5064  5082   un
  6383  5067  5068    1
  6384  5067  5083   un
  6385  5093  5094   un
  6386  5093  5098    1
  6387  5093  5100   un
  6388  5093  5104    1
  6389  5093  5106   un
  6390  5093  5118   un
  6391  5093  5130   un
  6392  5093  5141   un
  6393  5093  5161   un
  6394  5093  5164    1
  6395  5093  5165   un
  6396  5093  5168    1
  6397  5094  5099   un
  6398  5095  5096   un
  6399  5095  5099   un
  6400  5095  5187   un
  6401  5096  5097    1
  6402  5096  5218   un
  6403  5098  5118    1
  6404  5098  5141    1
  6405  5099  5186   un
  6406  5100  5105   un
  6407  5101  5102   un
  6408  5101  5105   un
  6409  5101  5190   un
  6410  5102  5103    1
  6411  5102  5215   un
  6412  5104  5106    1
  6413  5104  5130    1
  6414  5105  5189   un
  6415  5106  5107   un
  6416  5106  5111    1
  6417  5106  5113   un
  6418  5106  5130   un
  6419  5106  5141   un
  6420  5106  5152   un
  6421  5106  5160    1
  6422  5106  5168    1
  6423  5106  5181   un
  6424  5106  5186   un
  6425  5107  5112   un
  6426  5108  5109   un
  6427  5108  5112   un
  6428  5108  5170   un
  6429  5109  5110    1
  6430  5109  5225   un
  6431  5111  5141    1
  6432  5111  5152    1
  6433  5112  5169   un
  6434  5113  5117   un
  6435  5114  5115   un
  6436  5114  5117   un
  6437  5114  5179   un
  6438  5115  5116    1
  6439  5115  5224   un
  6440  5117  5178   un
  6441  5118  5119   un
  6442  5118  5123    1
  6443  5118  5125   un
  6444  5118  5130   un
  6445  5118  5141   un
  6446  5118  5152   un
  6447  5118  5156    1
  6448  5118  5164    1
  6449  5118  5189   un
  6450  5118  5192   un
  6451  5119  5124   un
  6452  5120  5121   un
  6453  5120  5124   un
  6454  5120  5176   un
  6455  5121  5122    1
  6456  5121  5223   un
  6457  5123  5130    1
  6458  5123  5152    1
  6459  5124  5175   un
  6460  5125  5129   un
  6461  5126  5127   un
  6462  5126  5129   un
  6463  5126  5173   un
  6464  5127  5128    1
  6465  5127  5226   un
  6466  5129  5172   un
  6467  5130  5131   un
  6468  5130  5136   un
  6469  5130  5152   un
  6470  5130  5160    1
  6471  5130  5164    1
  6472  5130  5169   un
  6473  5130  5172   un
  6474  5131  5135   un
  6475  5132  5133   un
  6476  5132  5135   un
  6477  5132  5166   un
  6478  5133  5134    1
  6479  5133  5208   un
  6480  5135  5165   un
  6481  5136  5140   un
  6482  5137  5138   un
  6483  5137  5140   un
  6484  5137  5154   un
  6485  5138  5139    1
  6486  5138  5209   un
  6487  5140  5153   un
  6488  5141  5142   un
  6489  5141  5147   un
  6490  5141  5152   un
  6491  5141  5156    1
  6492  5141  5168    1
  6493  5141  5175   un
  6494  5141  5178   un
  6495  5142  5146   un
  6496  5143  5144   un
  6497  5143  5146   un
  6498  5143  5158   un
  6499  5144  5145    1
  6500  5144  5210   un
  6501  5146  5157   un
  6502  5147  5151   un
  6503  5148  5149   un
  6504  5148  5151   un
  6505  5148  5162   un
  6506  5149  5150    1
  6507  5149  5207   un
  6508  5151  5161   un
  6509  5152  5153   un
  6510  5152  5156    1
  6511  5152  5157   un
  6512  5152  5160    1
  6513  5152  5197   un
  6514  5152  5200   un
  6515  5154  5155    1
  6516  5154  5206   un
  6517  5158  5159    1
  6518  5158  5203   un
  6519  5162  5163    1
  6520  5162  5204   un
  6521  5166  5167    1
  6522  5166  5205   un
  6523  5170  5171    1
  6524  5170  5221   un
  6525  5173  5174    1
  6526  5173  5220   un
  6527  5176  5177    1
  6528  5176  5219   un
  6529  5179  5180    1
  6530  5179  5222   un
  6531  5181  5185   un
  6532  5182  5183   un
  6533  5182  5185   un
  6534  5182  5201   un
  6535  5183  5184    1
  6536  5183  5212   un
  6537  5185  5200   un
  6538  5187  5188    1
  6539  5187  5213   un
  6540  5190  5191    1
  6541  5190  5214   un
  6542  5192  5196   un
  6543  5193  5194   un
  6544  5193  5196   un
  6545  5193  5198   un
  6546  5194  5195    1
  6547  5194  5211   un
  6548  5196  5197   un
  6549  5198  5199    1
  6550  5198  5216   un
  6551  5201  5202    1
  6552  5201  5217   un
  6553  5227  5228   un
  6554  5227  5232    1
  6555  5227  5234   un
  6556  5227  5238    1
  6557  5227  5240   un
  6558  5227  5252   un
  6559  5227  5264   un
  6560  5227  5275   un
  6561  5227  5295   un
  6562  5227  5298    1
  6563  5227  5299   un
  6564  5227  5302    1
  6565  5228  5233   un
  6566  5229  5230   un
  6567  5229  5233   un
  6568  5229  5321   un
  6569  5230  5231    1
  6570  5230  5352   un
  6571  5232  5252    1
  6572  5232  5275    1
  6573  5233  5320   un
  6574  5234  5239   un
  6575  5235  5236   un
  6576  5235  5239   un
  6577  5235  5324   un
  6578  5236  5237    1
  6579  5236  5349   un
  6580  5238  5240    1
  6581  5238  5264    1
  6582  5239  5323   un
  6583  5240  5241   un
  6584  5240  5245    1
  6585  5240  5247   un
  6586  5240  5264   un
  6587  5240  5275   un
  6588  5240  5286   un
  6589  5240  5294    1
  6590  5240  5302    1
  6591  5240  5315   un
  6592  5240  5320   un
  6593  5241  5246   un
  6594  5242  5243   un
  6595  5242  5246   un
  6596  5242  5304   un
  6597  5243  5244    1
  6598  5243  5359   un
  6599  5245  5275    1
  6600  5245  5286    1
  6601  5246  5303   un
  6602  5247  5251   un
  6603  5248  5249   un
  6604  5248  5251   un
  6605  5248  5313   un
  6606  5249  5250    1
  6607  5249  5358   un
  6608  5251  5312   un
  6609  5252  5253   un
  6610  5252  5257    1
  6611  5252  5259   un
  6612  5252  5264   un
  6613  5252  5275   un
  6614  5252  5286   un
  6615  5252  5290    1
  6616  5252  5298    1
  6617  5252  5323   un
  6618  5252  5326   un
  6619  5253  5258   un
  6620  5254  5255   un
  6621  5254  5258   un
  6622  5254  5310   un
  6623  5255  5256    1
  6624  5255  5357   un
  6625  5257  5264    1
  6626  5257  5286    1
  6627  5258  5309   un
  6628  5259  5263   un
  6629  5260  5261   un
  6630  5260  5263   un
  6631  5260  5307   un
  6632  5261  5262    1
  6633  5261  5360   un
  6634  5263  5306   un
  6635  5264  5265   un
  6636  5264  5270   un
  6637  5264  5286   un
  6638  5264  5294    1
  6639  5264  5298    1
  6640  5264  5303   un
  6641  5264  5306   un
  6642  5265  5269   un
  6643  5266  5267   un
  6644  5266  5269   un
  6645  5266  5300   un
  6646  5267  5268    1
  6647  5267  5342   un
  6648  5269  5299   un
  6649  5270  5274   un
  6650  5271  5272   un
  6651  5271  5274   un
  6652  5271  5288   un
  6653  5272  5273    1
  6654  5272  5343   un
  6655  5274  5287   un
  6656  5275  5276   un
  6657  5275  5281   un
  6658  5275  5286   un
  6659  5275  5290    1
  6660  5275  5302    1
  6661  5275  5309   un
  6662  5275  5312   un
  6663  5276  5280   un
  6664  5277  5278   un
  6665  5277  5280   un
  6666  5277  5292   un
  6667  5278  5279    1
  6668  5278  5344   un
  6669  5280  5291   un
  6670  5281  5285   un
  6671  5282  5283   un
  6672  5282  5285   un
  6673  5282  5296   un
  6674  5283  5284    1
  6675  5283  5341   un
  6676  5285  5295   un
  6677  5286  5287   un
  6678  5286  5290    1
  6679  5286  5291   un
  6680  5286  5294    1
  6681  5286  5331   un
  6682  5286  5334   un
  6683  5288  5289    1
  6684  5288  5340   un
  6685  5292  5293    1
  6686  5292  5337   un
  6687  5296  5297    1
  6688  5296  5338   un
  6689  5300  5301    1
  6690  5300  5339   un
  6691  5304  5305    1
  6692  5304  5355   un
  6693  5307  5308    1
  6694  5307  5354   un
  6695  5310  5311    1
  6696  5310  5353   un
  6697  5313  5314    1
  6698  5313  5356   un
  6699  5315  5319   un
  6700  5316  5317   un
  6701  5316  5319   un
  6702  5316  5335   un
  6703  5317  5318    1
  6704  5317  5346   un
  6705  5319  5334   un
  6706  5321  5322    1
  6707  5321  5347   un
  6708  5324  5325    1
  6709  5324  5348   un
  6710  5326  5330   un
  6711  5327  5328   un
  6712  5327  5330   un
  6713  5327  5332   un
  6714  5328  5329    1
  6715  5328  5345   un
  6716  5330  5331   un
  6717  5332  5333    1
  6718  5332  5350   un
  6719  5335  5336    1
  6720  5335  5351   un
  6721  5361  5362   un
  6722  5361  5366    1
  6723  5361  5368   un
  6724  5361  5372    1
  6725  5361  5374   un
  6726  5361  5386   un
  6727  5361  5398   un
  6728  5361  5409   un
  6729  5361  5429   un
  6730  5361  5432    1
  6731  5361  5433   un
  6732  5361  5436    1
  6733  5362  5367   un
  6734  5363  5364   un
  6735  5363  5367   un
  6736  5363  5455   un
  6737  5364  5365    1
  6738  5364  5486   un
  6739  5366  5386    1
  6740  5366  5409    1
  6741  5367  5454   un
  6742  5368  5373   un
  6743  5369  5370   un
  6744  5369  5373   un
  6745  5369  5458   un
  6746  5370  5371    1
  6747  5370  5483   un
  6748  5372  5374    1
  6749  5372  5398    1
  6750  5373  5457   un
  6751  5374  5375   un
  6752  5374  5379    1
  6753  5374  5381   un
  6754  5374  5398   un
  6755  5374  5409   un
  6756  5374  5420   un
  6757  5374  5428    1
  6758  5374  5436    1
  6759  5374  5449   un
  6760  5374  5454   un
  6761  5375  5380   un
  6762  5376  5377   un
  6763  5376  5380   un
  6764  5376  5438   un
  6765  5377  5378    1
  6766  5377  5493   un
  6767  5379  5409    1
  6768  5379  5420    1
  6769  5380  5437   un
  6770  5381  5385   un
  6771  5382  5383   un
  6772  5382  5385   un
  6773  5382  5447   un
  6774  5383  5384    1
  6775  5383  5492   un
  6776  5385  5446   un
  6777  5386  5387   un
  6778  5386  5391    1
  6779  5386  5393   un
  6780  5386  5398   un
  6781  5386  5409   un
  6782  5386  5420   un
  6783  5386  5424    1
  6784  5386  5432    1
  6785  5386  5457   un
  6786  5386  5460   un
  6787  5387  5392   un
  6788  5388  5389   un
  6789  5388  5392   un
  6790  5388  5444   un
  6791  5389  5390    1
  6792  5389  5491   un
  6793  5391  5398    1
  6794  5391  5420    1
  6795  5392  5443   un
  6796  5393  5397   un
  6797  5394  5395   un
  6798  5394  5397   un
  6799  5394  5441   un
  6800  5395  5396    1
  6801  5395  5494   un
  6802  5397  5440   un
  6803  5398  5399   un
  6804  5398  5404   un
  6805  5398  5420   un
  6806  5398  5428    1
  6807  5398  5432    1
  6808  5398  5437   un
  6809  5398  5440   un
  6810  5399  5403   un
  6811  5400  5401   un
  6812  5400  5403   un
  6813  5400  5434   un
  6814  5401  5402    1
  6815  5401  5476   un
  6816  5403  5433   un
  6817  5404  5408   un
  6818  5405  5406   un
  6819  5405  5408   un
  6820  5405  5422   un
  6821  5406  5407    1
  6822  5406  5477   un
  6823  5408  5421   un
  6824  5409  5410   un
  6825  5409  5415   un
  6826  5409  5420   un
  6827  5409  5424    1
  6828  5409  5436    1
  6829  5409  5443   un
  6830  5409  5446   un
  6831  5410  5414   un
  6832  5411  5412   un
  6833  5411  5414   un
  6834  5411  5426   un
  6835  5412  5413    1
  6836  5412  5478   un
  6837  5414  5425   un
  6838  5415  5419   un
  6839  5416  5417   un
  6840  5416  5419   un
  6841  5416  5430   un
  6842  5417  5418    1
  6843  5417  5475   un
  6844  5419  5429   un
  6845  5420  5421   un
  6846  5420  5424    1
  6847  5420  5425   un
  6848  5420  5428    1
  6849  5420  5465   un
  6850  5420  5468   un
  6851  5422  5423    1
  6852  5422  5474   un
  6853  5426  5427    1
  6854  5426  5471   un
  6855  5430  5431    1
  6856  5430  5472   un
  6857  5434  5435    1
  6858  5434  5473   un
  6859  5438  5439    1
  6860  5438  5489   un
  6861  5441  5442    1
  6862  5441  5488   un
  6863  5444  5445    1
  6864  5444  5487   un
  6865  5447  5448    1
  6866  5447  5490   un
  6867  5449  5453   un
  6868  5450  5451   un
  6869  5450  5453   un
  6870  5450  5469   un
  6871  5451  5452    1
  6872  5451  5480   un
  6873  5453  5468   un
  6874  5455  5456    1
  6875  5455  5481   un
  6876  5458  5459    1
  6877  5458  5482   un
  6878  5460  5464   un
  6879  5461  5462   un
  6880  5461  5464   un
  6881  5461  5466   un
  6882  5462  5463    1
  6883  5462  5479   un
  6884  5464  5465   un
  6885  5466  5467    1
  6886  5466  5484   un
  6887  5469  5470    1
  6888  5469  5485   un
  6889  5495  5496   un
  6890  5495  5500    1
  6891  5495  5502   un
  6892  5495  5506    1
  6893  5495  5508   un
  6894  5495  5520   un
  6895  5495  5532   un
  6896  5495  5543   un
  6897  5495  5563   un
  6898  5495  5566    1
  6899  5495  5567   un
  6900  5495  5570    1
  6901  5496  5501   un
  6902  5497  5498   un
  6903  5497  5501   un
  6904  5497  5589   un
  6905  5498  5499    1
  6906  5498  5620   un
  6907  5500  5520    1
  6908  5500  5543    1
  6909  5501  5588   un
  6910  5502  5507   un
  6911  5503  5504   un
  6912  5503  5507   un
  6913  5503  5592   un
  6914  5504  5505    1
  6915  5504  5617   un
  6916  5506  5508    1
  6917  5506  5532    1
  6918  5507  5591   un
  6919  5508  5509   un
  6920  5508  5513    1
  6921  5508  5515   un
  6922  5508  5532   un
  6923  5508  5543   un
  6924  5508  5554   un
  6925  5508  5562    1
  6926  5508  5570    1
  6927  5508  5583   un
  6928  5508  5588   un
  6929  5509  5514   un
  6930  5510  5511   un
  6931  5510  5514   un
  6932  5510  5572   un
  6933  5511  5512    1
  6934  5511  5627   un
  6935  5513  5543    1
  6936  5513  5554    1
  6937  5514  5571   un
  6938  5515  5519   un
  6939  5516  5517   un
  6940  5516  5519   un
  6941  5516  5581   un
  6942  5517  5518    1
  6943  5517  5626   un
  6944  5519  5580   un
  6945  5520  5521   un
  6946  5520  5525    1
  6947  5520  5527   un
  6948  5520  5532   un
  6949  5520  5543   un
  6950  5520  5554   un
  6951  5520  5558    1
  6952  5520  5566    1
  6953  5520  5591   un
  6954  5520  5594   un
  6955  5521  5526   un
  6956  5522  5523   un
  6957  5522  5526   un
  6958  5522  5578   un
  6959  5523  5524    1
  6960  5523  5625   un
  6961  5525  5532    1
  6962  5525  5554    1
  6963  5526  5577   un
  6964  5527  5531   un
  6965  5528  5529   un
  6966  5528  5531   un
  6967  5528  5575   un
  6968  5529  5530    1
  6969  5529  5628   un
  6970  5531  5574   un
  6971  5532  5533   un
  6972  5532  5538   un
  6973  5532  5554   un
  6974  5532  5562    1
  6975  5532  5566    1
  6976  5532  5571   un
  6977  5532  5574   un
  6978  5533  5537   un
  6979  5534  5535   un
  6980  5534  5537   un
  6981  5534  5568   un
  6982  5535  5536    1
  6983  5535  5610   un
  6984  5537  5567   un
  6985  5538  5542   un
  6986  5539  5540   un
  6987  5539  5542   un
  6988  5539  5556   un
  6989  5540  5541    1
  6990  5540  5611   un
  6991  5542  5555   un
  6992  5543  5544   un
  6993  5543  5549   un
  6994  5543  5554   un
  6995  5543  5558    1
  6996  5543  5570    1
  6997  5543  5577   un
  6998  5543  5580   un
  6999  5544  5548   un
  7000  5545  5546   un
  7001  5545  5548   un
  7002  5545  5560   un
  7003  5546  5547    1
  7004  5546  5612   un
  7005  5548  5559   un
  7006  5549  5553   un
  7007  5550  5551   un
  7008  5550  5553   un
  7009  5550  5564   un
  7010  5551  5552    1
  7011  5551  5609   un
  7012  5553  5563   un
  7013  5554  5555   un
  7014  5554  5558    1
  7015  5554  5559   un
  7016  5554  5562    1
  7017  5554  5599   un
  7018  5554  5602   un
  7019  5556  5557    1
  7020  5556  5608   un
  7021  5560  5561    1
  7022  5560  5605   un
  7023  5564  5565    1
  7024  5564  5606   un
  7025  5568  5569    1
  7026  5568  5607   un
  7027  5572  5573    1
  7028  5572  5623   un
  7029  5575  5576    1
  7030  5575  5622   un
  7031  5578  5579    1
  7032  5578  5621   un
  7033  5581  5582    1
  7034  5581  5624   un
  7035  5583  5587   un
  7036  5584  5585   un
  7037  5584  5587   un
  7038  5584  5603   un
  7039  5585  5586    1
  7040  5585  5614   un
  7041  5587  5602   un
  7042  5589  5590    1
  7043  5589  5615   un
  7044  5592  5593    1
  7045  5592  5616   un
  7046  5594  5598   un
  7047  5595  5596   un
  7048  5595  5598   un
  7049  5595  5600   un
  7050  5596  5597    1
  7051  5596  5613   un
  7052  5598  5599   un
  7053  5600  5601    1
  7054  5600  5618   un
  7055  5603  5604    1
  7056  5603  5619   un
  7057  5629  5630   un
  7058  5629  5634    1
  7059  5629  5636   un
  7060  5629  5640    1
  7061  5629  5642   un
  7062  5629  5654   un
  7063  5629  5666   un
  7064  5629  5677   un
  7065  5629  5697   un
  7066  5629  5700    1
  7067  5629  5701   un
  7068  5629  5704    1
  7069  5630  5635   un
  7070  5631  5632   un
  7071  5631  5635   un
  7072  5631  5723   un
  7073  5632  5633    1
  7074  5632  5754   un
  7075  5634  5654    1
  7076  5634  5677    1
  7077  5635  5722   un
  7078  5636  5641   un
  7079  5637  5638   un
  7080  5637  5641   un
  7081  5637  5726   un
  7082  5638  5639    1
  7083  5638  5751   un
  7084  5640  5642    1
  7085  5640  5666    1
  7086  5641  5725   un
  7087  5642  5643   un
  7088  5642  5647    1
  7089  5642  5649   un
  7090  5642  5666   un
  7091  5642  5677   un
  7092  5642  5688   un
  7093  5642  5696    1
  7094  5642  5704    1
  7095  5642  5717   un
  7096  5642  5722   un
  7097  5643  5648   un
  7098  5644  5645   un
  7099  5644  5648   un
  7100  5644  5706   un
  7101  5645  5646    1
  7102  5645  5761   un
  7103  5647  5677    1
  7104  5647  5688    1
  7105  5648  5705   un
  7106  5649  5653   un
  7107  5650  5651   un
  7108  5650  5653   un
  7109  5650  5715   un
  7110  5651  5652    1
  7111  5651  5760   un
  7112  5653  5714   un
  7113  5654  5655   un
  7114  5654  5659    1
  7115  5654  5661   un
  7116  5654  5666   un
  7117  5654  5677   un
  7118  5654  5688   un
  7119  5654  5692    1
  7120  5654  5700    1
  7121  5654  5725   un
  7122  5654  5728   un
  7123  5655  5660   un
  7124  5656  5657   un
  7125  5656  5660   un
  7126  5656  5712   un
  7127  5657  5658    1
  7128  5657  5759   un
  7129  5659  5666    1
  7130  5659  5688    1
  7131  5660  5711   un
  7132  5661  5665   un
  7133  5662  5663   un
  7134  5662  5665   un
  7135  5662  5709   un
  7136  5663  5664    1
  7137  5663  5762   un
  7138  5665  5708   un
  7139  5666  5667   un
  7140  5666  5672   un
  7141  5666  5688   un
  7142  5666  5696    1
  7143  5666  5700    1
  7144  5666  5705   un
  7145  5666  5708   un
  7146  5667  5671   un
  7147  5668  5669   un
  7148  5668  5671   un
  7149  5668  5702   un
  7150  5669  5670    1
  7151  5669  5744   un
  7152  5671  5701   un
  7153  5672  5676   un
  7154  5673  5674   un
  7155  5673  5676   un
  7156  5673  5690   un
  7157  5674  5675    1
  7158  5674  5745   un
  7159  5676  5689   un
  7160  5677  5678   un
  7161  5677  5683   un
  7162  5677  5688   un
  7163  5677  5692    1
  7164  5677  5704    1
  7165  5677  5711   un
  7166  5677  5714   un
  7167  5678  5682   un
  7168  5679  5680   un
  7169  5679  5682   un
  7170  5679  5694   un
  7171  5680  5681    1
  7172  5680  5746   un
  7173  5682  5693   un
  7174  5683  5687   un
  7175  5684  5685   un
  7176  5684  5687   un
  7177  5684  5698   un
  7178  5685  5686    1
  7179  5685  5743   un
  7180  5687  5697   un
  7181  5688  5689   un
  7182  5688  5692    1
  7183  5688  5693   un
  7184  5688  5696    1
  7185  5688  5733   un
  7186  5688  5736   un
  7187  5690  5691    1
  7188  5690  5742   un
  7189  5694  5695    1
  7190  5694  5739   un
  7191  5698  5699    1
  7192  5698  5740   un
  7193  5702  5703    1
  7194  5702  5741   un
  7195  5706  5707    1
  7196  5706  5757   un
  7197  5709  5710    1
  7198  5709  5756   un
  7199  5712  5713    1
  7200  5712  5755   un
  7201  5715  5716    1
  7202  5715  5758   un
  7203  5717  5721   un
  7204  5718  5719   un
  7205  5718  5721   un
  7206  5718  5737   un
  7207  5719  5720    1
  7208  5719  5748   un
  7209  5721  5736   un
  7210  5723  5724    1
  7211  5723  5749   un
  7212  5726  5727    1
  7213  5726  5750   un
  7214  5728  5732   un
  7215  5729  5730   un
  7216  5729  5732   un
  7217  5729  5734   un
  7218  5730  5731    1
  7219  5730  5747   un
  7220  5732  5733   un
  7221  5734  5735    1
  7222  5734  5752   un
  7223  5737  5738    1
  7224  5737  5753   un
  7225  5763  5764   un
  7226  5763  5768    1
  7227  5763  5770   un
  7228  5763  5774    1
  7229  5763  5776   un
  7230  5763  5788   un
  7231  5763  5800   un
  7232  5763  5811   un
  7233  5763  5831   un
  7234  5763  5834    1
  7235  5763  5835   un
  7236  5763  5838    1
  7237  5764  5769   un
  7238  5765  5766   un
  7239  5765  5769   un
  7240  5765  5857   un
  7241  5766  5767    1
  7242  5766  5888   un
  7243  5768  5788    1
  7244  5768  5811    1
  7245  5769  5856   un
  7246  5770  5775   un
  7247  5771  5772   un
  7248  5771  5775   un
  7249  5771  5860   un
  7250  5772  5773    1
  7251  5772  5885   un
  7252  5774  5776    1
  7253  5774  5800    1
  7254  5775  5859   un
  7255  5776  5777   un
  7256  5776  5781    1
  7257  5776  5783   un
  7258  5776  5800   un
  7259  5776  5811   un
  7260  5776  5822   un
  7261  5776  5830    1
  7262  5776  5838    1
  7263  5776  5851   un
  7264  5776  5856   un
  7265  5777  5782   un
  7266  5778  5779   un
  7267  5778  5782   un
  7268  5778  5840   un
  7269  5779  5780    1
  7270  5779  5895   un
  7271  5781  5811    1
  7272  5781  5822    1
  7273  5782  5839   un
  7274  5783  5787   un
  7275  5784  5785   un
  7276  5784  5787   un
  7277  5784  5849   un
  7278  5785  5786    1
  7279  5785  5894   un
  7280  5787  5848   un
  7281  5788  5789   un
  7282  5788  5793    1
  7283  5788  5795   un
  7284  5788  5800   un
  7285  5788  5811   un
  7286  5788  5822   un
  7287  5788  5826    1
  7288  5788  5834    1
  7289  5788  5859   un
  7290  5788  5862   un
  7291  5789  5794   un
  7292  5790  5791   un
  7293  5790  5794   un
  7294  5790  5846   un
  7295  5791  5792    1
  7296  5791  5893   un
  7297  5793  5800    1
  7298  5793  5822    1
  7299  5794  5845   un
  7300  5795  5799   un
  7301  5796  5797   un
  7302  5796  5799   un
  7303  5796  5843   un
  7304  5797  5798    1
  7305  5797  5896   un
  7306  5799  5842   un
  7307  5800  5801   un
  7308  5800  5806   un
  7309  5800  5822   un
  7310  5800  5830    1
  7311  5800  5834    1
  7312  5800  5839   un
  7313  5800  5842   un
  7314  5801  5805   un
  7315  5802  5803   un
  7316  5802  5805   un
  7317  5802  5836   un
  7318  5803  5804    1
  7319  5803  5878   un
  7320  5805  5835   un
  7321  5806  5810   un
  7322  5807  5808   un
  7323  5807  5810   un
  7324  5807  5824   un
  7325  5808  5809    1
  7326  5808  5879   un
  7327  5810  5823   un
  7328  5811  5812   un
  7329  5811  5817   un
  7330  5811  5822   un
  7331  5811  5826    1
  7332  5811  5838    1
  7333  5811  5845   un
  7334  5811  5848   un
  7335  5812  5816   un
  7336  5813  5814   un
  7337  5813  5816   un
  7338  5813  5828   un
  7339  5814  5815    1
  7340  5814  5880   un
  7341  5816  5827   un
  7342  5817  5821   un
  7343  5818  5819   un
  7344  5818  5821   un
  7345  5818  5832   un
  7346  5819  5820    1
  7347  5819  5877   un
  7348  5821  5831   un
  7349  5822  5823   un
  7350  5822  5826    1
  7351  5822  5827   un
  7352  5822  5830    1
  7353  5822  5867   un
  7354  5822  5870   un
  7355  5824  5825    1
  7356  5824  5876   un
  7357  5828  5829    1
  7358  5828  5873   un
  7359  5832  5833    1
  7360  5832  5874   un
  7361  5836  5837    1
  7362  5836  5875   un
  7363  5840  5841    1
  7364  5840  5891   un
  7365  5843  5844    1
  7366  5843  5890   un
  7367  5846  5847    1
  7368  5846  5889   un
  7369  5849  5850    1
  7370  5849  5892   un
  7371  5851  5855   un
  7372  5852  5853   un
  7373  5852  5855   un
  7374  5852  5871   un
  7375  5853  5854    1
  7376  5853  5882   un
  7377  5855  5870   un
  7378  5857  5858    1
  7379  5857  5883   un
  7380  5860  5861    1
  7381  5860  5884   un
  7382  5862  5866   un
  7383  5863  5864   un
  7384  5863  5866   un
  7385  5863  5868   un
  7386  5864  5865    1
  7387  5864  5881   un
  7388  5866  5867   un
  7389  5868  5869    1
  7390  5868  5886   un
  7391  5871  5872    1
  7392  5871  5887   un
  7393  5897  5898   un
  7394  5897  5902    1
  7395  5897  5904   un
  7396  5897  5908    1
  7397  5897  5910   un
  7398  5897  5922   un
  7399  5897  5934   un
  7400  5897  5945   un
  7401  5897  5965   un
  7402  5897  5968    1
  7403  5897  5969   un
  7404  5897  5972    1
  7405  5898  5903   un
  7406  5899  5900   un
  7407  5899  5903   un
  7408  5899  5991   un
  7409  5900  5901    1
  7410  5900  6022   un
  7411  5902  5922    1
  7412  5902  5945    1
  7413  5903  5990   un
  7414  5904  5909   un
  7415  5905  5906   un
  7416  5905  5909   un
  7417  5905  5994   un
  7418  5906  5907    1
  7419  5906  6019   un
  7420  5908  5910    1
  7421  5908  5934    1
  7422  5909  5993   un
  7423  5910  5911   un
  7424  5910  5915    1
  7425  5910  5917   un
  7426  5910  5934   un
  7427  5910  5945   un
  7428  5910  5956   un
  7429  5910  5964    1
  7430  5910  5972    1
  7431  5910  5985   un
  7432  5910  5990   un
  7433  5911  5916   un
  7434  5912  5913   un
  7435  5912  5916   un
  7436  5912  5974   un
  7437  5913  5914    1
  7438  5913  6029   un
  7439  5915  5945    1
  7440  5915  5956    1
  7441  5916  5973   un
  7442  5917  5921   un
  7443  5918  5919   un
  7444  5918  5921   un
  7445  5918  5983   un
  7446  5919  5920    1
  7447  5919  6028   un
  7448  5921  5982   un
  7449  5922  5923   un
  7450  5922  5927    1
  7451  5922  5929   un
  7452  5922  5934   un
  7453  5922  5945   un
  7454  5922  5956   un
  7455  5922  5960    1
  7456  5922  5968    1
  7457  5922  5993   un
  7458  5922  5996   un
  7459  5923  5928   un
  7460  5924  5925   un
  7461  5924  5928   un
  7462  5924  5980   un
  7463  5925  5926    1
  7464  5925  6027   un
  7465  5927  5934    1
  7466  5927  5956    1
  7467  5928  5979   un
  7468  5929  5933   un
  7469  5930  5931   un
  7470  5930  5933   un
  7471  5930  5977   un
  7472  5931  5932    1
  7473  5931  6030   un
  7474  5933  5976   un
  7475  5934  5935   un
  7476  5934  5940   un
  7477  5934  5956   un
  7478  5934  5964    1
  7479  5934  5968    1
  7480  5934  5973   un
  7481  5934  5976   un
  7482  5935  5939   un
  7483  5936  5937   un
  7484  5936  5939   un
  7485  5936  5970   un
  7486  5937  5938    1
  7487  5937  6012   un
  7488  5939  5969   un
  7489  5940  5944   un
  7490  5941  5942   un
  7491  5941  5944   un
  7492  5941  5958   un
  7493  5942  5943    1
  7494  5942  6013   un
  7495  5944  5957   un
  7496  5945  5946   un
  7497  5945  5951   un
  7498  5945  5956   un
  7499  5945  5960    1
  7500  5945  5972    1
  7501  5945  5979   un
  7502  5945  5982   un
  7503  5946  5950   un
  7504  5947  5948   un
  7505  5947  5950   un
  7506  5947  5962   un
  7507  5948  5949    1
  7508  5948  6014   un
  7509  5950  5961   un
  7510  5951  5955   un
  7511  5952  5953   un
  7512  5952  5955   un
  7513  5952  5966   un
  7514  5953  5954    1
  7515  5953  6011   un
  7516  5955  5965   un
  7517  5956  5957   un
  7518  5956  5960    1
  7519  5956  5961   un
  7520  5956  5964    1
  7521  5956  6001   un
  7522  5956  6004   un
  7523  5958  5959    1
  7524  5958  6010   un
  7525  5962  5963    1
  7526  5962  6007   un
  7527  5966  5967    1
  7528  5966  6008   un
  7529  5970  5971    1
  7530  5970  6009   un
  7531  5974  5975    1
  7532  5974  6025   un
  7533  5977  5978    1
  7534  5977  6024   un
  7535  5980  5981    1
  7536  5980  6023   un
  7537  5983  5984    1
  7538  5983  6026   un
  7539  5985  5989   un
  7540  5986  5987   un
  7541  5986  5989   un
  7542  5986  6005   un
  7543  5987  5988    1
  7544  5987  6016   un
  7545  5989  6004   un
  7546  5991  5992    1
  7547  5991  6017   un
  7548  5994  5995    1
  7549  5994  6018   un
  7550  5996  6000   un
  7551  5997  5998   un
  7552  5997  6000   un
  7553  5997  6002   un
  7554  5998  5999    1
  7555  5998  6015   un
  7556  6000  6001   un
  7557  6002  6003    1
  7558  6002  6020   un
  7559  6005  6006    1
  7560  6005  6021   un
  7561  6031  6032   un
  7562  6031  6036    1
  7563  6031  6038   un
  7564  6031  6042    1
  7565  6031  6044   un
  7566  6031  6056   un
  7567  6031  6068   un
  7568  6031  6079   un
  7569  6031  6099   un
  7570  6031  6102    1
  7571  6031  6103   un
  7572  6031  6106    1
  7573  6032  6037   un
  7574  6033  6034   un
  7575  6033  6037   un
  7576  6033  6125   un
  7577  6034  6035    1
  7578  6034  6156   un
  7579  6036  6056    1
  7580  6036  6079    1
  7581  6037  6124   un
  7582  6038  6043   un
  7583  6039  6040   un
  7584  6039  6043   un
  7585  6039  6128   un
  7586  6040  6041    1
  7587  6040  6153   un
  7588  6042  6044    1
  7589  6042  6068    1
  7590  6043  6127   un
  7591  6044  6045   un
  7592  6044  6049    1
  7593  6044  6051   un
  7594  6044  6068   un
  7595  6044  6079   un
  7596  6044  6090   un
  7597  6044  6098    1
  7598  6044  6106    1
  7599  6044  6119   un
  7600  6044  6124   un
  7601  6045  6050   un
  7602  6046  6047   un
  7603  6046  6050   un
  7604  6046  6108   un
  7605  6047  6048    1
  7606  6047  6163   un
  7607  6049  6079    1
  7608  6049  6090    1
  7609  6050  6107   un
  7610  6051  6055   un
  7611  6052  6053   un
  7612  6052  6055   un
  7613  6052  6117   un
  7614  6053  6054    1
  7615  6053  6162   un
  7616  6055  6116   un
  7617  6056  6057   un
  7618  6056  6061    1
  7619  6056  6063   un
  7620  6056  6068   un
  7621  6056  6079   un
  7622  6056  6090   un
  7623  6056  6094    1
  7624  6056  6102    1
  7625  6056  6127   un
  7626  6056  6130   un
  7627  6057  6062   un
  7628  6058  6059   un
  7629  6058  6062   un
  7630  6058  6114   un
  7631  6059  6060    1
  7632  6059  6161   un
  7633  6061  6068    1
  7634  6061  6090    1
  7635  6062  6113   un
  7636  6063  6067   un
  7637  6064  6065   un
  7638  6064  6067   un
  7639  6064  6111   un
  7640  6065  6066    1
  7641  6065  6164   un
  7642  6067  6110   un
  7643  6068  6069   un
  7644  6068  6074   un
  7645  6068  6090   un
  7646  6068  6098    1
  7647  6068  6102    1
  7648  6068  6107   un
  7649  6068  6110   un
  7650  6069  6073   un
  7651  6070  6071   un
  7652  6070  6073   un
  7653  6070  6104   un
  7654  6071  6072    1
  7655  6071  6146   un
  7656  6073  6103   un
  7657  6074  6078   un
  7658  6075  6076   un
  7659  6075  6078   un
  7660  6075  6092   un
  7661  6076  6077    1
  7662  6076  6147   un
  7663  6078  6091   un
  7664  6079  6080   un
  7665  6079  6085   un
  7666  6079  6090   un
  7667  6079  6094    1
  7668  6079  6106    1
  7669  6079  6113   un
  7670  6079  6116   un
  7671  6080  6084   un
  7672  6081  6082   un
  7673  6081  6084   un
  7674  6081  6096   un
  7675  6082  6083    1
  7676  6082  6148   un
  7677  6084  6095   un
  7678  6085  6089   un
  7679  6086  6087   un
  7680  6086  6089   un
  7681  6086  6100   un
  7682  6087  6088    1
  7683  6087  6145   un
  7684  6089  6099   un
  7685  6090  6091   un
  7686  6090  6094    1
  7687  6090  6095   un
  7688  6090  6098    1
  7689  6090  6135   un
  7690  6090  6138   un
  7691  6092  6093    1
  7692  6092  6144   un
  7693  6096  6097    1
  7694  6096  6141   un
  7695  6100  6101    1
  7696  6100  6142   un
  7697  6104  6105    1
  7698  6104  6143   un
  7699  6108  6109    1
  7700  6108  6159   un
  7701  6111  6112    1
  7702  6111  6158   un
  7703  6114  6115    1
  7704  6114  6157   un
  7705  6117  6118    1
  7706  6117  6160   un
  7707  6119  6123   un
  7708  6120  6121   un
  7709  6120  6123   un
  7710  6120  6139   un
  7711  6121  6122    1
  7712  6121  6150   un
  7713  6123  6138   un
  7714  6125  6126    1
  7715  6125  6151   un
  7716  6128  6129    1
  7717  6128  6152   un
  7718  6130  6134   un
  7719  6131  6132   un
  7720  6131  6134   un
  7721  6131  6136   un
  7722  6132  6133    1
  7723  6132  6149   un
  7724  6134  6135   un
  7725  6136  6137    1
  7726  6136  6154   un
  7727  6139  6140    1
  7728  6139  6155   un
  7729  6165  6166   un
  7730  6165  6170    1
  7731  6165  6172   un
  7732  6165  6176    1
  7733  6165  6178   un
  7734  6165  6190   un
  7735  6165  6202   un
  7736  6165  6213   un
  7737  6165  6233   un
  7738  6165  6236    1
  7739  6165  6237   un
  7740  6165  6240    1
  7741  6166  6171   un
  7742  6167  6168   un
  7743  6167  6171   un
  7744  6167  6259   un
  7745  6168  6169    1
  7746  6168  6290   un
  7747  6170  6190    1
  7748  6170  6213    1
  7749  6171  6258   un
  7750  6172  6177   un
  7751  6173  6174   un
  7752  6173  6177   un
  7753  6173  6262   un
  7754  6174  6175    1
  7755  6174  6287   un
  7756  6176  6178    1
  7757  6176  6202    1
  7758  6177  6261   un
  7759  6178  6179   un
  7760  6178  6183    1
  7761  6178  6185   un
  7762  6178  6202   un
  7763  6178  6213   un
  7764  6178  6224   un
  7765  6178  6232    1
  7766  6178  6240    1
  7767  6178  6253   un
  7768  6178  6258   un
  7769  6179  6184   un
  7770  6180  6181   un
  7771  6180  6184   un
  7772  6180  6242   un
  7773  6181  6182    1
  7774  6181  6297   un
  7775  6183  6213    1
  7776  6183  6224    1
  7777  6184  6241   un
  7778  6185  6189   un
  7779  6186  6187   un
  7780  6186  6189   un
  7781  6186  6251   un
  7782  6187  6188    1
  7783  6187  6296   un
  7784  6189  6250   un
  7785  6190  6191   un
  7786  6190  6195    1
  7787  6190  6197   un
  7788  6190  6202   un
  7789  6190  6213   un
  7790  6190  6224   un
  7791  6190  6228    1
  7792  6190  6236    1
  7793  6190  6261   un
  7794  6190  6264   un
  7795  6191  6196   un
  7796  6192  6193   un
  7797  6192  6196   un
  7798  6192  6248   un
  7799  6193  6194    1
  7800  6193  6295   un
  7801  6195  6202    1
  7802  6195  6224    1
  7803  6196  6247   un
  7804  6197  6201   un
  7805  6198  6199   un
  7806  6198  6201   un
  7807  6198  6245   un
  7808  6199  6200    1
  7809  6199  6298   un
  7810  6201  6244   un
  7811  6202  6203   un
  7812  6202  6208   un
  7813  6202  6224   un
  7814  6202  6232    1
  7815  6202  6236    1
  7816  6202  6241   un
  7817  6202  6244   un
  7818  6203  6207   un
  7819  6204  6205   un
  7820  6204  6207   un
  7821  6204  6238   un
  7822  6205  6206    1
  7823  6205  6280   un
  7824  6207  6237   un
  7825  6208  6212   un
  7826  6209  6210   un
  7827  6209  6212   un
  7828  6209  6226   un
  7829  6210  6211    1
  7830  6210  6281   un
  7831  6212  6225   un
  7832  6213  6214   un
  7833  6213  6219   un
  7834  6213  6224   un
  7835  6213  6228    1
  7836  6213  6240    1
  7837  6213  6247   un
  7838  6213  6250   un
  7839  6214  6218   un
  7840  6215  6216   un
  7841  6215  6218   un
  7842  6215  6230   un
  7843  6216  6217    1
  7844  6216  6282   un
  7845  6218  6229   un
  7846  6219  6223   un
  7847  6220  6221   un
  7848  6220  6223   un
  7849  6220  6234   un
  7850  6221  6222    1
  7851  6221  6279   un
  7852  6223  6233   un
  7853  6224  6225   un
  7854  6224  6228    1
  7855  6224  6229   un
  7856  6224  6232    1
  7857  6224  6269   un
  7858  6224  6272   un
  7859  6226  6227    1
  7860  6226  6278   un
  7861  6230  6231    1
  7862  6230  6275   un
  7863  6234  6235    1
  7864  6234  6276   un
  7865  6238  6239    1
  7866  6238  6277   un
  7867  6242  6243    1
  7868  6242  6293   un
  7869  6245  6246    1
  7870  6245  6292   un
  7871  6248  6249    1
  7872  6248  6291   un
  7873  6251  6252    1
  7874  6251  6294   un
  7875  6253  6257   un
  7876  6254  6255   un
  7877  6254  6257   un
  7878  6254  6273   un
  7879  6255  6256    1
  7880  6255  6284   un
  7881  6257  6272   un
  7882  6259  6260    1
  7883  6259  6285   un
  7884  6262  6263    1
  7885  6262  6286   un
  7886  6264  6268   un
  7887  6265  6266   un
  7888  6265  6268   un
  7889  6265  6270   un
  7890  6266  6267    1
  7891  6266  6283   un
  7892  6268  6269   un
  7893  6270  6271    1
  7894  6270  6288   un
  7895  6273  6274    1
  7896  6273  6289   un
  7897  6299  6300   un
  7898  6299  6304    1
  7899  6299  6306   un
  7900  6299  6310    1
  7901  6299  6312   un
  7902  6299  6324   un
  7903  6299  6336   un
  7904  6299  6347   un
  7905  6299  6367   un
  7906  6299  6370    1
  7907  6299  6371   un
  7908  6299  6374    1
  7909  6300  6305   un
  7910  6301  6302   un
  7911  6301  6305   un
  7912  6301  6393   un
  7913  6302  6303    1
  7914  6302  6424   un
  7915  6304  6324    1
  7916  6304  6347    1
  7917  6305  6392   un
  7918  6306  6311   un
  7919  6307  6308   un
  7920  6307  6311   un
  7921  6307  6396   un
  7922  6308  6309    1
  7923  6308  6421   un
  7924  6310  6312    1
  7925  6310  6336    1
  7926  6311  6395   un
  7927  6312  6313   un
  7928  6312  6317    1
  7929  6312  6319   un
  7930  6312  6336   un
  7931  6312  6347   un
  7932  6312  6358   un
  7933  6312  6366    1
  7934  6312  6374    1
  7935  6312  6387   un
  7936  6312  6392   un
  7937  6313  6318   un
  7938  6314  6315   un
  7939  6314  6318   un
  7940  6314  6376   un
  7941  6315  6316    1
  7942  6315  6431   un
  7943  6317  6347    1
  7944  6317  6358    1
  7945  6318  6375   un
  7946  6319  6323   un
  7947  6320  6321   un
  7948  6320  6323   un
  7949  6320  6385   un
  7950  6321  6322    1
  7951  6321  6430   un
  7952  6323  6384   un
  7953  6324  6325   un
  7954  6324  6329    1
  7955  6324  6331   un
  7956  6324  6336   un
  7957  6324  6347   un
  7958  6324  6358   un
  7959  6324  6362    1
  7960  6324  6370    1
  7961  6324  6395   un
  7962  6324  6398   un
  7963  6325  6330   un
  7964  6326  6327   un
  7965  6326  6330   un
  7966  6326  6382   un
  7967  6327  6328    1
  7968  6327  6429   un
  7969  6329  6336    1
  7970  6329  6358    1
  7971  6330  6381   un
  7972  6331  6335   un
  7973  6332  6333   un
  7974  6332  6335   un
  7975  6332  6379   un
  7976  6333  6334    1
  7977  6333  6432   un
  7978  6335  6378   un
  7979  6336  6337   un
  7980  6336  6342   un
  7981  6336  6358   un
  7982  6336  6366    1
  7983  6336  6370    1
  7984  6336  6375   un
  7985  6336  6378   un
  7986  6337  6341   un
  7987  6338  6339   un
  7988  6338  6341   un
  7989  6338  6372   un
  7990  6339  6340    1
  7991  6339  6414   un
  7992  6341  6371   un
  7993  6342  6346   un
  7994  6343  6344   un
  7995  6343  6346   un
  7996  6343  6360   un
  7997  6344  6345    1
  7998  6344  6415   un
  7999  6346  6359   un
  8000  6347  6348   un
  8001  6347  6353   un
  8002  6347  6358   un
  8003  6347  6362    1
  8004  6347  6374    1
  8005  6347  6381   un
  8006  6347  6384   un
  8007  6348  6352   un
  8008  6349  6350   un
  8009  6349  6352   un
  8010  6349  6364   un
  8011  6350  6351    1
  8012  6350  6416   un
  8013  6352  6363   un
  8014  6353  6357   un
  8015  6354  6355   un
  8016  6354  6357   un
  8017  6354  6368   un
  8018  6355  6356    1
  8019  6355  6413   un
  8020  6357  6367   un
  8021  6358  6359   un
  8022  6358  6362    1
  8023  6358  6363   un
  8024  6358  6366    1
  8025  6358  6403   un
  8026  6358  6406   un
  8027  6360  6361    1
  8028  6360  6412   un
  8029  6364  6365    1
  8030  6364  6409   un
  8031  6368  6369    1
  8032  6368  6410   un
  8033  6372  6373    1
  8034  6372  6411   un
  8035  6376  6377    1
  8036  6376  6427   un
  8037  6379  6380    1
  8038  6379  6426   un
  8039  6382  6383    1
  8040  6382  6425   un
  8041  6385  6386    1
  8042  6385  6428   un
  8043  6387  6391   un
  8044  6388  6389   un
  8045  6388  6391   un
  8046  6388  6407   un
  8047  6389  6390    1
  8048  6389  6418   un
  8049  6391  6406   un
  8050  6393  6394    1
  8051  6393  6419   un
  8052  6396  6397    1
  8053  6396  6420   un
  8054  6398  6402   un
  8055  6399  6400   un
  8056  6399  6402   un
  8057  6399  6404   un
  8058  6400  6401    1
  8059  6400  6417   un
  8060  6402  6403   un
  8061  6404  6405    1
  8062  6404  6422   un
  8063  6407  6408    1
  8064  6407  6423   un
  8065  6433  6434   un
  8066  6433  6438    1
  8067  6433  6440   un
  8068  6433  6444    1
  8069  6433  6446   un
  8070  6433  6458   un
  8071  6433  6470   un
  8072  6433  6481   un
  8073  6433  6501   un
  8074  6433  6504    1
  8075  6433  6505   un
  8076  6433  6508    1
  8077  6434  6439   un
  8078  6435  6436   un
  8079  6435  6439   un
  8080  6435  6527   un
  8081  6436  6437    1
  8082  6436  6558   un
  8083  6438  6458    1
  8084  6438  6481    1
  8085  6439  6526   un
  8086  6440  6445   un
  8087  6441  6442   un
  8088  6441  6445   un
  8089  6441  6530   un
  8090  6442  6443    1
  8091  6442  6555   un
  8092  6444  6446    1
  8093  6444  6470    1
  8094  6445  6529   un
  8095  6446  6447   un
  8096  6446  6451    1
  8097  6446  6453   un
  8098  6446  6470   un
  8099  6446  6481   un
  8100  6446  6492   un
  8101  6446  6500    1
  8102  6446  6508    1
  8103  6446  6521   un
  8104  6446  6526   un
  8105  6447  6452   un
  8106  6448  6449   un
  8107  6448  6452   un
  8108  6448  6510   un
  8109  6449  6450    1
  8110  6449  6565   un
  8111  6451  6481    1
  8112  6451  6492    1
  8113  6452  6509   un
  8114  6453  6457   un
  8115  6454  6455   un
  8116  6454  6457   un
  8117  6454  6519   un
  8118  6455  6456    1
  8119  6455  6564   un
  8120  6457  6518   un
  8121  6458  6459   un
  8122  6458  6463    1
  8123  6458  6465   un
  8124  6458  6470   un
  8125  6458  6481   un
  8126  6458  6492   un
  8127  6458  6496    1
  8128  6458  6504    1
  8129  6458  6529   un
  8130  6458  6532   un
  8131  6459  6464   un
  8132  6460  6461   un
  8133  6460  6464   un
  8134  6460  6516   un
  8135  6461  6462    1
  8136  6461  6563   un
  8137  6463  6470    1
  8138  6463  6492    1
  8139  6464  6515   un
  8140  6465  6469   un
  8141  6466  6467   un
  8142  6466  6469   un
  8143  6466  6513   un
  8144  6467  6468    1
  8145  6467  6566   un
  8146  6469  6512   un
  8147  6470  6471   un
  8148  6470  6476   un
  8149  6470  6492   un
  8150  6470  6500    1
  8151  6470  6504    1
  8152  6470  6509   un
  8153  6470  6512   un
  8154  6471  6475   un
  8155  6472  6473   un
  8156  6472  6475   un
  8157  6472  6506   un
  8158  6473  6474    1
  8159  6473  6548   un
  8160  6475  6505   un
  8161  6476  6480   un
  8162  6477  6478   un
  8163  6477  6480   un
  8164  6477  6494   un
  8165  6478  6479    1
  8166  6478  6549   un
  8167  6480  6493   un
  8168  6481  6482   un
  8169  6481  6487   un
  8170  6481  6492   un
  8171  6481  6496    1
  8172  6481  6508    1
  8173  6481  6515   un
  8174  6481  6518   un
  8175  6482  6486   un
  8176  6483  6484   un
  8177  6483  6486   un
  8178  6483  6498   un
  8179  6484  6485    1
  8180  6484  6550   un
  8181  6486  6497   un
  8182  6487  6491   un
  8183  6488  6489   un
  8184  6488  6491   un
  8185  6488  6502   un
  8186  6489  6490    1
  8187  6489  6547   un
  8188  6491  6501   un
  8189  6492  6493   un
  8190  6492  6496    1
  8191  6492  6497   un
  8192  6492  6500    1
  8193  6492  6537   un
  8194  6492  6540   un
  8195  6494  6495    1
  8196  6494  6546   un
  8197  6498  6499    1
  8198  6498  6543   un
  8199  6502  6503    1
  8200  6502  6544   un
  8201  6506  6507    1
  8202  6506  6545   un
  8203  6510  6511    1
  8204  6510  6561   un
  8205  6513  6514    1
  8206  6513  6560   un
  8207  6516  6517    1
  8208  6516  6559   un
  8209  6519  6520    1
  8210  6519  6562   un
  8211  6521  6525   un
  8212  6522  6523   un
  8213  6522  6525   un
  8214  6522  6541   un
  8215  6523  6524    1
  8216  6523  6552   un
  8217  6525  6540   un
  8218  6527  6528    1
  8219  6527  6553   un
  8220  6530  6531    1
  8221  6530  6554   un
  8222  6532  6536   un
  8223  6533  6534   un
  8224  6533  6536   un
  8225  6533  6538   un
  8226  6534  6535    1
  8227  6534  6551   un
  8228  6536  6537   un
  8229  6538  6539    1
  8230  6538  6556   un
  8231  6541  6542    1
  8232  6541  6557   un
  8233  6567  6568   un
  8234  6567  6572    1
  8235  6567  6574   un
  8236  6567  6578    1
  8237  6567  6580   un
  8238  6567  6592   un
  8239  6567  6604   un
  8240  6567  6615   un
  8241  6567  6635   un
  8242  6567  6638    1
  8243  6567  6639   un
  8244  6567  6642    1
  8245  6568  6573   un
  8246  6569  6570   un
  8247  6569  6573   un
  8248  6569  6661   un
  8249  6570  6571    1
  8250  6570  6692   un
  8251  6572  6592    1
  8252  6572  6615    1
  8253  6573  6660   un
  8254  6574  6579   un
  8255  6575  6576   un
  8256  6575  6579   un
  8257  6575  6664   un
  8258  6576  6577    1
  8259  6576  6689   un
  8260  6578  6580    1
  8261  6578  6604    1
  8262  6579  6663   un
  8263  6580  6581   un
  8264  6580  6585    1
  8265  6580  6587   un
  8266  6580  6604   un
  8267  6580  6615   un
  8268  6580  6626   un
  8269  6580  6634    1
  8270  6580  6642    1
  8271  6580  6655   un
  8272  6580  6660   un
  8273  6581  6586   un
  8274  6582  6583   un
  8275  6582  6586   un
  8276  6582  6644   un
  8277  6583  6584    1
  8278  6583  6699   un
  8279  6585  6615    1
  8280  6585  6626    1
  8281  6586  6643   un
  8282  6587  6591   un
  8283  6588  6589   un
  8284  6588  6591   un
  8285  6588  6653   un
  8286  6589  6590    1
  8287  6589  6698   un
  8288  6591  6652   un
  8289  6592  6593   un
  8290  6592  6597    1
  8291  6592  6599   un
  8292  6592  6604   un
  8293  6592  6615   un
  8294  6592  6626   un
  8295  6592  6630    1
  8296  6592  6638    1
  8297  6592  6663   un
  8298  6592  6666   un
  8299  6593  6598   un
  8300  6594  6595   un
  8301  6594  6598   un
  8302  6594  6650   un
  8303  6595  6596    1
  8304  6595  6697   un
  8305  6597  6604    1
  8306  6597  6626    1
  8307  6598  6649   un
  8308  6599  6603   un
  8309  6600  6601   un
  8310  6600  6603   un
  8311  6600  6647   un
  8312  6601  6602    1
  8313  6601  6700   un
  8314  6603  6646   un
  8315  6604  6605   un
  8316  6604  6610   un
  8317  6604  6626   un
  8318  6604  6634    1
  8319  6604  6638    1
  8320  6604  6643   un
  8321  6604  6646   un
  8322  6605  6609   un
  8323  6606  6607   un
  8324  6606  6609   un
  8325  6606  6640   un
  8326  6607  6608    1
  8327  6607  6682   un
  8328  6609  6639   un
  8329  6610  6614   un
  8330  6611  6612   un
  8331  6611  6614   un
  8332  6611  6628   un
  8333  6612  6613    1
  8334  6612  6683   un
  8335  6614  6627   un
  8336  6615  6616   un
  8337  6615  6621   un
  8338  6615  6626   un
  8339  6615  6630    1
  8340  6615  6642    1
  8341  6615  6649   un
  8342  6615  6652   un
  8343  6616  6620   un
  8344  6617  6618   un
  8345  6617  6620   un
  8346  6617  6632   un
  8347  6618  6619    1
  8348  6618  6684   un
  8349  6620  6631   un
  8350  6621  6625   un
  8351  6622  6623   un
  8352  6622  6625   un
  8353  6622  6636   un
  8354  6623  6624    1
  8355  6623  6681   un
  8356  6625  6635   un
  8357  6626  6627   un
  8358  6626  6630    1
  8359  6626  6631   un
  8360  6626  6634    1
  8361  6626  6671   un
  8362  6626  6674   un
  8363  6628  6629    1
  8364  6628  6680   un
  8365  6632  6633    1
  8366  6632  6677   un
  8367  6636  6637    1
  8368  6636  6678   un
  8369  6640  6641    1
  8370  6640  6679   un
  8371  6644  6645    1
  8372  6644  6695   un
  8373  6647  6648    1
  8374  6647  6694   un
  8375  6650  6651    1
  8376  6650  6693   un
  8377  6653  6654    1
  8378  6653  6696   un
  8379  6655  6659   un
  8380  6656  6657   un
  8381  6656  6659   un
  8382  6656  6675   un
  8383  6657  6658    1
  8384  6657  6686   un
  8385  6659  6674   un
  8386  6661  6662    1
  8387  6661  6687   un
  8388  6664  6665    1
  8389  6664  6688   un
  8390  6666  6670   un
  8391  6667  6668   un
  8392  6667  6670   un
  8393  6667  6672   un
  8394  6668  6669    1
  8395  6668  6685   un
  8396  6670  6671   un
  8397  6672  6673    1
  8398  6672  6690   un
  8399  6675  6676    1
  8400  6675  6691   un
  8401  6701  6702   un
  8402  6701  6706    1
  8403  6701  6708   un
  8404  6701  6712    1
  8405  6701  6714   un
  8406  6701  6726   un
  8407  6701  6738   un
  8408  6701  6749   un
  8409  6701  6769   un
  8410  6701  6772    1
  8411  6701  6773   un
  8412  6701  6776    1
  8413  6702  6707   un
  8414  6703  6704   un
  8415  6703  6707   un
  8416  6703  6795   un
  8417  6704  6705    1
  8418  6704  6826   un
  8419  6706  6726    1
  8420  6706  6749    1
  8421  6707  6794   un
  8422  6708  6713   un
  8423  6709  6710   un
  8424  6709  6713   un
  8425  6709  6798   un
  8426  6710  6711    1
  8427  6710  6823   un
  8428  6712  6714    1
  8429  6712  6738    1
  8430  6713  6797   un
  8431  6714  6715   un
  8432  6714  6719    1
  8433  6714  6721   un
  8434  6714  6738   un
  8435  6714  6749   un
  8436  6714  6760   un
  8437  6714  6768    1
  8438  6714  6776    1
  8439  6714  6789   un
  8440  6714  6794   un
  8441  6715  6720   un
  8442  6716  6717   un
  8443  6716  6720   un
  8444  6716  6778   un
  8445  6717  6718    1
  8446  6717  6833   un
  8447  6719  6749    1
  8448  6719  6760    1
  8449  6720  6777   un
  8450  6721  6725   un
  8451  6722  6723   un
  8452  6722  6725   un
  8453  6722  6787   un
  8454  6723  6724    1
  8455  6723  6832   un
  8456  6725  6786   un
  8457  6726  6727   un
  8458  6726  6731    1
  8459  6726  6733   un
  8460  6726  6738   un
  8461  6726  6749   un
  8462  6726  6760   un
  8463  6726  6764    1
  8464  6726  6772    1
  8465  6726  6797   un
  8466  6726  6800   un
  8467  6727  6732   un
  8468  6728  6729   un
  8469  6728  6732   un
  8470  6728  6784   un
  8471  6729  6730    1
  8472  6729  6831   un
  8473  6731  6738    1
  8474  6731  6760    1
  8475  6732  6783   un
  8476  6733  6737   un
  8477  6734  6735   un
  8478  6734  6737   un
  8479  6734  6781   un
  8480  6735  6736    1
  8481  6735  6834   un
  8482  6737  6780   un
  8483  6738  6739   un
  8484  6738  6744   un
  8485  6738  6760   un
  8486  6738  6768    1
  8487  6738  6772    1
  8488  6738  6777   un
  8489  6738  6780   un
  8490  6739  6743   un
  8491  6740  6741   un
  8492  6740  6743   un
  8493  6740  6774   un
  8494  6741  6742    1
  8495  6741  6816   un
  8496  6743  6773   un
  8497  6744  6748   un
  8498  6745  6746   un
  8499  6745  6748   un
  8500  6745  6762   un
  8501  6746  6747    1
  8502  6746  6817   un
  8503  6748  6761   un
  8504  6749  6750   un
  8505  6749  6755   un
  8506  6749  6760   un
  8507  6749  6764    1
  8508  6749  6776    1
  8509  6749  6783   un
  8510  6749  6786   un
  8511  6750  6754   un
  8512  6751  6752   un
  8513  6751  6754   un
  8514  6751  6766   un
  8515  6752  6753    1
  8516  6752  6818   un
  8517  6754  6765   un
  8518  6755  6759   un
  8519  6756  6757   un
  8520  6756  6759   un
  8521  6756  6770   un
  8522  6757  6758    1
  8523  6757  6815   un
  8524  6759  6769   un
  8525  6760  6761   un
  8526  6760  6764    1
  8527  6760  6765   un
  8528  6760  6768    1
  8529  6760  6805   un
  8530  6760  6808   un
  8531  6762  6763    1
  8532  6762  6814   un
  8533  6766  6767    1
  8534  6766  6811   un
  8535  6770  6771    1
  8536  6770  6812   un
  8537  6774  6775    1
  8538  6774  6813   un
  8539  6778  6779    1
  8540  6778  6829   un
  8541  6781  6782    1
  8542  6781  6828   un
  8543  6784  6785    1
  8544  6784  6827   un
  8545  6787  6788    1
  8546  6787  6830   un
  8547  6789  6793   un
  8548  6790  6791   un
  8549  6790  6793   un
  8550  6790  6809   un
  8551  6791  6792    1
  8552  6791  6820   un
  8553  6793  6808   un
  8554  6795  6796    1
  8555  6795  6821   un
  8556  6798  6799    1
  8557  6798  6822   un
  8558  6800  6804   un
  8559  6801  6802   un
  8560  6801  6804   un
  8561  6801  6806   un
  8562  6802  6803    1
  8563  6802  6819   un
  8564  6804  6805   un
  8565  6806  6807    1
  8566  6806  6824   un
  8567  6809  6810    1
  8568  6809  6825   un
  8569  6835  6836   un
  8570  6835  6840    1
  8571  6835  6842   un
  8572  6835  6846    1
  8573  6835  6848   un
  8574  6835  6860   un
  8575  6835  6872   un
  8576  6835  6883   un
  8577  6835  6903   un
  8578  6835  6906    1
  8579  6835  6907   un
  8580  6835  6910    1
  8581  6836  6841   un
  8582  6837  6838   un
  8583  6837  6841   un
  8584  6837  6929   un
  8585  6838  6839    1
  8586  6838  6960   un
  8587  6840  6860    1
  8588  6840  6883    1
  8589  6841  6928   un
  8590  6842  6847   un
  8591  6843  6844   un
  8592  6843  6847   un
  8593  6843  6932   un
  8594  6844  6845    1
  8595  6844  6957   un
  8596  6846  6848    1
  8597  6846  6872    1
  8598  6847  6931   un
  8599  6848  6849   un
  8600  6848  6853    1
  8601  6848  6855   un
  8602  6848  6872   un
  8603  6848  6883   un
  8604  6848  6894   un
  8605  6848  6902    1
  8606  6848  6910    1
  8607  6848  6923   un
  8608  6848  6928   un
  8609  6849  6854   un
  8610  6850  6851   un
  8611  6850  6854   un
  8612  6850  6912   un
  8613  6851  6852    1
  8614  6851  6967   un
  8615  6853  6883    1
  8616  6853  6894    1
  8617  6854  6911   un
  8618  6855  6859   un
  8619  6856  6857   un
  8620  6856  6859   un
  8621  6856  6921   un
  8622  6857  6858    1
  8623  6857  6966   un
  8624  6859  6920   un
  8625  6860  6861   un
  8626  6860  6865    1
  8627  6860  6867   un
  8628  6860  6872   un
  8629  6860  6883   un
  8630  6860  6894   un
  8631  6860  6898    1
  8632  6860  6906    1
  8633  6860  6931   un
  8634  6860  6934   un
  8635  6861  6866   un
  8636  6862  6863   un
  8637  6862  6866   un
  8638  6862  6918   un
  8639  6863  6864    1
  8640  6863  6965   un
  8641  6865  6872    1
  8642  6865  6894    1
  8643  6866  6917   un
  8644  6867  6871   un
  8645  6868  6869   un
  8646  6868  6871   un
  8647  6868  6915   un
  8648  6869  6870    1
  8649  6869  6968   un
  8650  6871  6914   un
  8651  6872  6873   un
  8652  6872  6878   un
  8653  6872  6894   un
  8654  6872  6902    1
  8655  6872  6906    1
  8656  6872  6911   un
  8657  6872  6914   un
  8658  6873  6877   un
  8659  6874  6875   un
  8660  6874  6877   un
  8661  6874  6908   un
  8662  6875  6876    1
  8663  6875  6950   un
  8664  6877  6907   un
  8665  6878  6882   un
  8666  6879  6880   un
  8667  6879  6882   un
  8668  6879  6896   un
  8669  6880  6881    1
  8670  6880  6951   un
  8671  6882  6895   un
  8672  6883  6884   un
  8673  6883  6889   un
  8674  6883  6894   un
  8675  6883  6898    1
  8676  6883  6910    1
  8677  6883  6917   un
  8678  6883  6920   un
  8679  6884  6888   un
  8680  6885  6886   un
  8681  6885  6888   un
  8682  6885  6900   un
  8683  6886  6887    1
  8684  6886  6952   un
  8685  6888  6899   un
  8686  6889  6893   un
  8687  6890  6891   un
  8688  6890  6893   un
  8689  6890  6904   un
  8690  6891  6892    1
  8691  6891  6949   un
  8692  6893  6903   un
  8693  6894  6895   un
  8694  6894  6898    1
  8695  6894  6899   un
  8696  6894  6902    1
  8697  6894  6939   un
  8698  6894  6942   un
  8699  6896  6897    1
  8700  6896  6948   un
  8701  6900  6901    1
  8702  6900  6945   un
  8703  6904  6905    1
  8704  6904  6946   un
  8705  6908  6909    1
  8706  6908  6947   un
  8707  6912  6913    1
  8708  6912  6963   un
  8709  6915  6916    1
  8710  6915  6962   un
  8711  6918  6919    1
  8712  6918  6961   un
  8713  6921  6922    1
  8714  6921  6964   un
  8715  6923  6927   un
  8716  6924  6925   un
  8717  6924  6927   un
  8718  6924  6943   un
  8719  6925  6926    1
  8720  6925  6954   un
  8721  6927  6942   un
  8722  6929  6930    1
  8723  6929  6955   un
  8724  6932  6933    1
  8725  6932  6956   un
  8726  6934  6938   un
  8727  6935  6936   un
  8728  6935  6938   un
  8729  6935  6940   un
  8730  6936  6937    1
  8731  6936  6953   un
  8732  6938  6939   un
  8733  6940  6941    1
  8734  6940  6958   un
  8735  6943  6944    1
  8736  6943  6959   un
  8737  6969  6970   un
  8738  6969  6974    1
  8739  6969  6976   un
  8740  6969  6980    1
  8741  6969  6982   un
  8742  6969  6994   un
  8743  6969  7006   un
  8744  6969  7017   un
  8745  6969  7037   un
  8746  6969  7040    1
  8747  6969  7041   un
  8748  6969  7044    1
  8749  6970  6975   un
  8750  6971  6972   un
  8751  6971  6975   un
  8752  6971  7063   un
  8753  6972  6973    1
  8754  6972  7094   un
  8755  6974  6994    1
  8756  6974  7017    1
  8757  6975  7062   un
  8758  6976  6981   un
  8759  6977  6978   un
  8760  6977  6981   un
  8761  6977  7066   un
  8762  6978  6979    1
  8763  6978  7091   un
  8764  6980  6982    1
  8765  6980  7006    1
  8766  6981  7065   un
  8767  6982  6983   un
  8768  6982  6987    1
  8769  6982  6989   un
  8770  6982  7006   un
  8771  6982  7017   un
  8772  6982  7028   un
  8773  6982  7036    1
  8774  6982  7044    1
  8775  6982  7057   un
  8776  6982  7062   un
  8777  6983  6988   un
  8778  6984  6985   un
  8779  6984  6988   un
  8780  6984  7046   un
  8781  6985  6986    1
  8782  6985  7101   un
  8783  6987  7017    1
  8784  6987  7028    1
  8785  6988  7045   un
  8786  6989  6993   un
  8787  6990  6991   un
  8788  6990  6993   un
  8789  6990  7055   un
  8790  6991  6992    1
  8791  6991  7100   un
  8792  6993  7054   un
  8793  6994  6995   un
  8794  6994  6999    1
  8795  6994  7001   un
  8796  6994  7006   un
  8797  6994  7017   un
  8798  6994  7028   un
  8799  6994  7032    1
  8800  6994  7040    1
  8801  6994  7065   un
  8802  6994  7068   un
  8803  6995  7000   un
  8804  6996  6997   un
  8805  6996  7000   un
  8806  6996  7052   un
  8807  6997  6998    1
  8808  6997  7099   un
  8809  6999  7006    1
  8810  6999  7028    1
  8811  7000  7051   un
  8812  7001  7005   un
  8813  7002  7003   un
  8814  7002  7005   un
  8815  7002  7049   un
  8816  7003  7004    1
  8817  7003  7102   un
  8818  7005  7048   un
  8819  7006  7007   un
  8820  7006  7012   un
  8821  7006  7028   un
  8822  7006  7036    1
  8823  7006  7040    1
  8824  7006  7045   un
  8825  7006  7048   un
  8826  7007  7011   un
  8827  7008  7009   un
  8828  7008  7011   un
  8829  7008  7042   un
  8830  7009  7010    1
  8831  7009  7084   un
  8832  7011  7041   un
  8833  7012  7016   un
  8834  7013  7014   un
  8835  7013  7016   un
  8836  7013  7030   un
  8837  7014  7015    1
  8838  7014  7085   un
  8839  7016  7029   un
  8840  7017  7018   un
  8841  7017  7023   un
  8842  7017  7028   un
  8843  7017  7032    1
  8844  7017  7044    1
  8845  7017  7051   un
  8846  7017  7054   un
  8847  7018  7022   un
  8848  7019  7020   un
  8849  7019  7022   un
  8850  7019  7034   un
  8851  7020  7021    1
  8852  7020  7086   un
  8853  7022  7033   un
  8854  7023  7027   un
  8855  7024  7025   un
  8856  7024  7027   un
  8857  7024  7038   un
  8858  7025  7026    1
  8859  7025  7083   un
  8860  7027  7037   un
  8861  7028  7029   un
  8862  7028  7032    1
  8863  7028  7033   un
  8864  7028  7036    1
  8865  7028  7073   un
  8866  7028  7076   un
  8867  7030  7031    1
  8868  7030  7082   un
  8869  7034  7035    1
  8870  7034  7079   un
  8871  7038  7039    1
  8872  7038  7080   un
  8873  7042  7043    1
  8874  7042  7081   un
  8875  7046  7047    1
  8876  7046  7097   un
  8877  7049  7050    1
  8878  7049  7096   un
  8879  7052  7053    1
  8880  7052  7095   un
  8881  7055  7056    1
  8882  7055  7098   un
  8883  7057  7061   un
  8884  7058  7059   un
  8885  7058  7061   un
  8886  7058  7077   un
  8887  7059  7060    1
  8888  7059  7088   un
  8889  7061  7076   un
  8890  7063  7064    1
  8891  7063  7089   un
  8892  7066  7067    1
  8893  7066  7090   un
  8894  7068  7072   un
  8895  7069  7070   un
  8896  7069  7072   un
  8897  7069  7074   un
  8898  7070  7071    1
  8899  7070  7087   un
  8900  7072  7073   un
  8901  7074  7075    1
  8902  7074  7092   un
  8903  7077  7078    1
  8904  7077  7093   un
  8905  7103  7104   un
  8906  7103  7108    1
  8907  7103  7110   un
  8908  7103  7114    1
  8909  7103  7116   un
  8910  7103  7128   un
  8911  7103  7140   un
  8912  7103  7151   un
  8913  7103  7171   un
  8914  7103  7174    1
  8915  7103  7175   un
  8916  7103  7178    1
  8917  7104  7109   un
  8918  7105  7106   un
  8919  7105  7109   un
  8920  7105  7197   un
  8921  7106  7107    1
  8922  7106  7228   un
  8923  7108  7128    1
  8924  7108  7151    1
  8925  7109  7196   un
  8926  7110  7115   un
  8927  7111  7112   un
  8928  7111  7115   un
  8929  7111  7200   un
  8930  7112  7113    1
  8931  7112  7225   un
  8932  7114  7116    1
  8933  7114  7140    1
  8934  7115  7199   un
  8935  7116  7117   un
  8936  7116  7121    1
  8937  7116  7123   un
  8938  7116  7140   un
  8939  7116  7151   un
  8940  7116  7162   un
  8941  7116  7170    1
  8942  7116  7178    1
  8943  7116  7191   un
  8944  7116  7196   un
  8945  7117  7122   un
  8946  7118  7119   un
  8947  7118  7122   un
  8948  7118  7180   un
  8949  7119  7120    1
  8950  7119  7235   un
  8951  7121  7151    1
  8952  7121  7162    1
  8953  7122  7179   un
  8954  7123  7127   un
  8955  7124  7125   un
  8956  7124  7127   un
  8957  7124  7189   un
  8958  7125  7126    1
  8959  7125  7234   un
  8960  7127  7188   un
  8961  7128  7129   un
  8962  7128  7133    1
  8963  7128  7135   un
  8964  7128  7140   un
  8965  7128  7151   un
  8966  7128  7162   un
  8967  7128  7166    1
  8968  7128  7174    1
  8969  7128  7199   un
  8970  7128  7202   un
  8971  7129  7134   un
  8972  7130  7131   un
  8973  7130  7134   un
  8974  7130  7186   un
  8975  7131  7132    1
  8976  7131  7233   un
  8977  7133  7140    1
  8978  7133  7162    1
  8979  7134  7185   un
  8980  7135  7139   un
  8981  7136  7137   un
  8982  7136  7139   un
  8983  7136  7183   un
  8984  7137  7138    1
  8985  7137  7236   un
  8986  7139  7182   un
  8987  7140  7141   un
  8988  7140  7146   un
  8989  7140  7162   un
  8990  7140  7170    1
  8991  7140  7174    1
  8992  7140  7179   un
  8993  7140  7182   un
  8994  7141  7145   un
  8995  7142  7143   un
  8996  7142  7145   un
  8997  7142  7176   un
  8998  7143  7144    1
  8999  7143  7218   un
  9000  7145  7175   un
  9001  7146  7150   un
  9002  7147  7148   un
  9003  7147  7150   un
  9004  7147  7164   un
  9005  7148  7149    1
  9006  7148  7219   un
  9007  7150  7163   un
  9008  7151  7152   un
  9009  7151  7157   un
  9010  7151  7162   un
  9011  7151  7166    1
  9012  7151  7178    1
  9013  7151  7185   un
  9014  7151  7188   un
  9015  7152  7156   un
  9016  7153  7154   un
  9017  7153  7156   un
  9018  7153  7168   un
  9019  7154  7155    1
  9020  7154  7220   un
  9021  7156  7167   un
  9022  7157  7161   un
  9023  7158  7159   un
  9024  7158  7161   un
  9025  7158  7172   un
  9026  7159  7160    1
  9027  7159  7217   un
  9028  7161  7171   un
  9029  7162  7163   un
  9030  7162  7166    1
  9031  7162  7167   un
  9032  7162  7170    1
  9033  7162  7207   un
  9034  7162  7210   un
  9035  7164  7165    1
  9036  7164  7216   un
  9037  7168  7169    1
  9038  7168  7213   un
  9039  7172  7173    1
  9040  7172  7214   un
  9041  7176  7177    1
  9042  7176  7215   un
  9043  7180  7181    1
  9044  7180  7231   un
  9045  7183  7184    1
  9046  7183  7230   un
  9047  7186  7187    1
  9048  7186  7229   un
  9049  7189  7190    1
  9050  7189  7232   un
  9051  7191  7195   un
  9052  7192  7193   un
  9053  7192  7195   un
  9054  7192  7211   un
  9055  7193  7194    1
  9056  7193  7222   un
  9057  7195  7210   un
  9058  7197  7198    1
  9059  7197  7223   un
  9060  7200  7201    1
  9061  7200  7224   un
  9062  7202  7206   un
  9063  7203  7204   un
  9064  7203  7206   un
  9065  7203  7208   un
  9066  7204  7205    1
  9067  7204  7221   un
  9068  7206  7207   un
  9069  7208  7209    1
  9070  7208  7226   un
  9071  7211  7212    1
  9072  7211  7227   un
  9073  7237  7238   un
  9074  7237  7242    1
  9075  7237  7244   un
  9076  7237  7248    1
  9077  7237  7250   un
  9078  7237  7262   un
  9079  7237  7274   un
  9080  7237  7285   un
  9081  7237  7305   un
  9082  7237  7308    1
  9083  7237  7309   un
  9084  7237  7312    1
  9085  7238  7243   un
  9086  7239  7240   un
  9087  7239  7243   un
  9088  7239  7331   un
  9089  7240  7241    1
  9090  7240  7362   un
  9091  7242  7262    1
  9092  7242  7285    1
  9093  7243  7330   un
  9094  7244  7249   un
  9095  7245  7246   un
  9096  7245  7249   un
  9097  7245  7334   un
  9098  7246  7247    1
  9099  7246  7359   un
  9100  7248  7250    1
  9101  7248  7274    1
  9102  7249  7333   un
  9103  7250  7251   un
  9104  7250  7255    1
  9105  7250  7257   un
  9106  7250  7274   un
  9107  7250  7285   un
  9108  7250  7296   un
  9109  7250  7304    1
  9110  7250  7312    1
  9111  7250  7325   un
  9112  7250  7330   un
  9113  7251  7256   un
  9114  7252  7253   un
  9115  7252  7256   un
  9116  7252  7314   un
  9117  7253  7254    1
  9118  7253  7369   un
  9119  7255  7285    1
  9120  7255  7296    1
  9121  7256  7313   un
  9122  7257  7261   un
  9123  7258  7259   un
  9124  7258  7261   un
  9125  7258  7323   un
  9126  7259  7260    1
  9127  7259  7368   un
  9128  7261  7322   un
  9129  7262  7263   un
  9130  7262  7267    1
  9131  7262  7269   un
  9132  7262  7274   un
  9133  7262  7285   un
  9134  7262  7296   un
  9135  7262  7300    1
  9136  7262  7308    1
  9137  7262  7333   un
  9138  7262  7336   un
  9139  7263  7268   un
  9140  7264  7265   un
  9141  7264  7268   un
  9142  7264  7320   un
  9143  7265  7266    1
  9144  7265  7367   un
  9145  7267  7274    1
  9146  7267  7296    1
  9147  7268  7319   un
  9148  7269  7273   un
  9149  7270  7271   un
  9150  7270  7273   un
  9151  7270  7317   un
  9152  7271  7272    1
  9153  7271  7370   un
  9154  7273  7316   un
  9155  7274  7275   un
  9156  7274  7280   un
  9157  7274  7296   un
  9158  7274  7304    1
  9159  7274  7308    1
  9160  7274  7313   un
  9161  7274  7316   un
  9162  7275  7279   un
  9163  7276  7277   un
  9164  7276  7279   un
  9165  7276  7310   un
  9166  7277  7278    1
  9167  7277  7352   un
  9168  7279  7309   un
  9169  7280  7284   un
  9170  7281  7282   un
  9171  7281  7284   un
  9172  7281  7298   un
  9173  7282  7283    1
  9174  7282  7353   un
  9175  7284  7297   un
  9176  7285  7286   un
  9177  7285  7291   un
  9178  7285  7296   un
  9179  7285  7300    1
  9180  7285  7312    1
  9181  7285  7319   un
  9182  7285  7322   un
  9183  7286  7290   un
  9184  7287  7288   un
  9185  7287  7290   un
  9186  7287  7302   un
  9187  7288  7289    1
  9188  7288  7354   un
  9189  7290  7301   un
  9190  7291  7295   un
  9191  7292  7293   un
  9192  7292  7295   un
  9193  7292  7306   un
  9194  7293  7294    1
  9195  7293  7351   un
  9196  7295  7305   un
  9197  7296  7297   un
  9198  7296  7300    1
  9199  7296  7301   un
  9200  7296  7304    1
  9201  7296  7341   un
  9202  7296  7344   un
  9203  7298  7299    1
  9204  7298  7350   un
  9205  7302  7303    1
  9206  7302  7347   un
  9207  7306  7307    1
  9208  7306  7348   un
  9209  7310  7311    1
  9210  7310  7349   un
  9211  7314  7315    1
  9212  7314  7365   un
  9213  7317  7318    1
  9214  7317  7364   un
  9215  7320  7321    1
  9216  7320  7363   un
  9217  7323  7324    1
  9218  7323  7366   un
  9219  7325  7329   un
  9220  7326  7327   un
  9221  7326  7329   un
  9222  7326  7345   un
  9223  7327  7328    1
  9224  7327  7356   un
  9225  7329  7344   un
  9226  7331  7332    1
  9227  7331  7357   un
  9228  7334  7335    1
  9229  7334  7358   un
  9230  7336  7340   un
  9231  7337  7338   un
  9232  7337  7340   un
  9233  7337  7342   un
  9234  7338  7339    1
  9235  7338  7355   un
  9236  7340  7341   un
  9237  7342  7343    1
  9238  7342  7360   un
  9239  7345  7346    1
  9240  7345  7361   un
  9241  7371  7372   un
  9242  7371  7376    1
  9243  7371  7378   un
  9244  7371  7382    1
  9245  7371  7384   un
  9246  7371  7396   un
  9247  7371  7408   un
  9248  7371  7419   un
  9249  7371  7439   un
  9250  7371  7442    1
  9251  7371  7443   un
  9252  7371  7446    1
  9253  7372  7377   un
  9254  7373  7374   un
  9255  7373  7377   un
  9256  7373  7465   un
  9257  7374  7375    1
  9258  7374  7496   un
  9259  7376  7396    1
  9260  7376  7419    1
  9261  7377  7464   un
  9262  7378  7383   un
  9263  7379  7380   un
  9264  7379  7383   un
  9265  7379  7468   un
  9266  7380  7381    1
  9267  7380  7493   un
  9268  7382  7384    1
  9269  7382  7408    1
  9270  7383  7467   un
  9271  7384  7385   un
  9272  7384  7389    1
  9273  7384  7391   un
  9274  7384  7408   un
  9275  7384  7419   un
  9276  7384  7430   un
  9277  7384  7438    1
  9278  7384  7446    1
  9279  7384  7459   un
  9280  7384  7464   un
  9281  7385  7390   un
  9282  7386  7387   un
  9283  7386  7390   un
  9284  7386  7448   un
  9285  7387  7388    1
  9286  7387  7503   un
  9287  7389  7419    1
  9288  7389  7430    1
  9289  7390  7447   un
  9290  7391  7395   un
  9291  7392  7393   un
  9292  7392  7395   un
  9293  7392  7457   un
  9294  7393  7394    1
  9295  7393  7502   un
  9296  7395  7456   un
  9297  7396  7397   un
  9298  7396  7401    1
  9299  7396  7403   un
  9300  7396  7408   un
  9301  7396  7419   un
  9302  7396  7430   un
  9303  7396  7434    1
  9304  7396  7442    1
  9305  7396  7467   un
  9306  7396  7470   un
  9307  7397  7402   un
  9308  7398  7399   un
  9309  7398  7402   un
  9310  7398  7454   un
  9311  7399  7400    1
  9312  7399  7501   un
  9313  7401  7408    1
  9314  7401  7430    1
  9315  7402  7453   un
  9316  7403  7407   un
  9317  7404  7405   un
  9318  7404  7407   un
  9319  7404  7451   un
  9320  7405  7406    1
  9321  7405  7504   un
  9322  7407  7450   un
  9323  7408  7409   un
  9324  7408  7414   un
  9325  7408  7430   un
  9326  7408  7438    1
  9327  7408  7442    1
  9328  7408  7447   un
  9329  7408  7450   un
  9330  7409  7413   un
  9331  7410  7411   un
  9332  7410  7413   un
  9333  7410  7444   un
  9334  7411  7412    1
  9335  7411  7486   un
  9336  7413  7443   un
  9337  7414  7418   un
  9338  7415  7416   un
  9339  7415  7418   un
  9340  7415  7432   un
  9341  7416  7417    1
  9342  7416  7487   un
  9343  7418  7431   un
  9344  7419  7420   un
  9345  7419  7425   un
  9346  7419  7430   un
  9347  7419  7434    1
  9348  7419  7446    1
  9349  7419  7453   un
  9350  7419  7456   un
  9351  7420  7424   un
  9352  7421  7422   un
  9353  7421  7424   un
  9354  7421  7436   un
  9355  7422  7423    1
  9356  7422  7488   un
  9357  7424  7435   un
  9358  7425  7429   un
  9359  7426  7427   un
  9360  7426  7429   un
  9361  7426  7440   un
  9362  7427  7428    1
  9363  7427  7485   un
  9364  7429  7439   un
  9365  7430  7431   un
  9366  7430  7434    1
  9367  7430  7435   un
  9368  7430  7438    1
  9369  7430  7475   un
  9370  7430  7478   un
  9371  7432  7433    1
  9372  7432  7484   un
  9373  7436  7437    1
  9374  7436  7481   un
  9375  7440  7441    1
  9376  7440  7482   un
  9377  7444  7445    1
  9378  7444  7483   un
  9379  7448  7449    1
  9380  7448  7499   un
  9381  7451  7452    1
  9382  7451  7498   un
  9383  7454  7455    1
  9384  7454  7497   un
  9385  7457  7458    1
  9386  7457  7500   un
  9387  7459  7463   un
  9388  7460  7461   un
  9389  7460  7463   un
  9390  7460  7479   un
  9391  7461  7462    1
  9392  7461  7490   un
  9393  7463  7478   un
  9394  7465  7466    1
  9395  7465  7491   un
  9396  7468  7469    1
  9397  7468  7492   un
  9398  7470  7474   un
  9399  7471  7472   un
  9400  7471  7474   un
  9401  7471  7476   un
  9402  7472  7473    1
  9403  7472  7489   un
  9404  7474  7475   un
  9405  7476  7477    1
  9406  7476  7494   un
  9407  7479  7480    1
  9408  7479  7495   un
  9409  7505  7506   un
  9410  7505  7510    1
  9411  7505  7512   un
  9412  7505  7516    1
  9413  7505  7518   un
  9414  7505  7530   un
  9415  7505  7542   un
  9416  7505  7553   un
  9417  7505  7573   un
  9418  7505  7576    1
  9419  7505  7577   un
  9420  7505  7580    1
  9421  7506  7511   un
  9422  7507  7508   un
  9423  7507  7511   un
  9424  7507  7599   un
  9425  7508  7509    1
  9426  7508  7630   un
  9427  7510  7530    1
  9428  7510  7553    1
  9429  7511  7598   un
  9430  7512  7517   un
  9431  7513  7514   un
  9432  7513  7517   un
  9433  7513  7602   un
  9434  7514  7515    1
  9435  7514  7627   un
  9436  7516  7518    1
  9437  7516  7542    1
  9438  7517  7601   un
  9439  7518  7519   un
  9440  7518  7523    1
  9441  7518  7525   un
  9442  7518  7542   un
  9443  7518  7553   un
  9444  7518  7564   un
  9445  7518  7572    1
  9446  7518  7580    1
  9447  7518  7593   un
  9448  7518  7598   un
  9449  7519  7524   un
  9450  7520  7521   un
  9451  7520  7524   un
  9452  7520  7582   un
  9453  7521  7522    1
  9454  7521  7637   un
  9455  7523  7553    1
  9456  7523  7564    1
  9457  7524  7581   un
  9458  7525  7529   un
  9459  7526  7527   un
  9460  7526  7529   un
  9461  7526  7591   un
  9462  7527  7528    1
  9463  7527  7636   un
  9464  7529  7590   un
  9465  7530  7531   un
  9466  7530  7535    1
  9467  7530  7537   un
  9468  7530  7542   un
  9469  7530  7553   un
  9470  7530  7564   un
  9471  7530  7568    1
  9472  7530  7576    1
  9473  7530  7601   un
  9474  7530  7604   un
  9475  7531  7536   un
  9476  7532  7533   un
  9477  7532  7536   un
  9478  7532  7588   un
  9479  7533  7534    1
  9480  7533  7635   un
  9481  7535  7542    1
  9482  7535  7564    1
  9483  7536  7587   un
  9484  7537  7541   un
  9485  7538  7539   un
  9486  7538  7541   un
  9487  7538  7585   un
  9488  7539  7540    1
  9489  7539  7638   un
  9490  7541  7584   un
  9491  7542  7543   un
  9492  7542  7548   un
  9493  7542  7564   un
  9494  7542  7572    1
  9495  7542  7576    1
  9496  7542  7581   un
  9497  7542  7584   un
  9498  7543  7547   un
  9499  7544  7545   un
  9500  7544  7547   un
  9501  7544  7578   un
  9502  7545  7546    1
  9503  7545  7620   un
  9504  7547  7577   un
  9505  7548  7552   un
  9506  7549  7550   un
  9507  7549  7552   un
  9508  7549  7566   un
  9509  7550  7551    1
  9510  7550  7621   un
  9511  7552  7565   un
  9512  7553  7554   un
  9513  7553  7559   un
  9514  7553  7564   un
  9515  7553  7568    1
  9516  7553  7580    1
  9517  7553  7587   un
  9518  7553  7590   un
  9519  7554  7558   un
  9520  7555  7556   un
  9521  7555  7558   un
  9522  7555  7570   un
  9523  7556  7557    1
  9524  7556  7622   un
  9525  7558  7569   un
  9526  7559  7563   un
  9527  7560  7561   un
  9528  7560  7563   un
  9529  7560  7574   un
  9530  7561  7562    1
  9531  7561  7619   un
  9532  7563  7573   un
  9533  7564  7565   un
  9534  7564  7568    1
  9535  7564  7569   un
  9536  7564  7572    1
  9537  7564  7609   un
  9538  7564  7612   un
  9539  7566  7567    1
  9540  7566  7618   un
  9541  7570  7571    1
  9542  7570  7615   un
  9543  7574  7575    1
  9544  7574  7616   un
  9545  7578  7579    1
  9546  7578  7617   un
  9547  7582  7583    1
  9548  7582  7633   un
  9549  7585  7586    1
  9550  7585  7632   un
  9551  7588  7589    1
  9552  7588  7631   un
  9553  7591  7592    1
  9554  7591  7634   un
  9555  7593  7597   un
  9556  7594  7595   un
  9557  7594  7597   un
  9558  7594  7613   un
  9559  7595  7596    1
  9560  7595  7624   un
  9561  7597  7612   un
  9562  7599  7600    1
  9563  7599  7625   un
  9564  7602  7603    1
  9565  7602  7626   un
  9566  7604  7608   un
  9567  7605  7606   un
  9568  7605  7608   un
  9569  7605  7610   un
  9570  7606  7607    1
  9571  7606  7623   un
  9572  7608  7609   un
  9573  7610  7611    1
  9574  7610  7628   un
  9575  7613  7614    1
  9576  7613  7629   un
  9577  7639  7640   un
  9578  7639  7644    1
  9579  7639  7646   un
  9580  7639  7650    1
  9581  7639  7652   un
  9582  7639  7664   un
  9583  7639  7676   un
  9584  7639  7687   un
  9585  7639  7707   un
  9586  7639  7710    1
  9587  7639  7711   un
  9588  7639  7714    1
  9589  7640  7645   un
  9590  7641  7642   un
  9591  7641  7645   un
  9592  7641  7733   un
  9593  7642  7643    1
  9594  7642  7764   un
  9595  7644  7664    1
  9596  7644  7687    1
  9597  7645  7732   un
  9598  7646  7651   un
  9599  7647  7648   un
  9600  7647  7651   un
  9601  7647  7736   un
  9602  7648  7649    1
  9603  7648  7761   un
  9604  7650  7652    1
  9605  7650  7676    1
  9606  7651  7735   un
  9607  7652  7653   un
  9608  7652  7657    1
  9609  7652  7659   un
  9610  7652  7676   un
  9611  7652  7687   un
  9612  7652  7698   un
  9613  7652  7706    1
  9614  7652  7714    1
  9615  7652  7727   un
  9616  7652  7732   un
  9617  7653  7658   un
  9618  7654  7655   un
  9619  7654  7658   un
  9620  7654  7716   un
  9621  7655  7656    1
  9622  7655  7771   un
  9623  7657  7687    1
  9624  7657  7698    1
  9625  7658  7715   un
  9626  7659  7663   un
  9627  7660  7661   un
  9628  7660  7663   un
  9629  7660  7725   un
  9630  7661  7662    1
  9631  7661  7770   un
  9632  7663  7724   un
  9633  7664  7665   un
  9634  7664  7669    1
  9635  7664  7671   un
  9636  7664  7676   un
  9637  7664  7687   un
  9638  7664  7698   un
  9639  7664  7702    1
  9640  7664  7710    1
  9641  7664  7735   un
  9642  7664  7738   un
  9643  7665  7670   un
  9644  7666  7667   un
  9645  7666  7670   un
  9646  7666  7722   un
  9647  7667  7668    1
  9648  7667  7769   un
  9649  7669  7676    1
  9650  7669  7698    1
  9651  7670  7721   un
  9652  7671  7675   un
  9653  7672  7673   un
  9654  7672  7675   un
  9655  7672  7719   un
  9656  7673  7674    1
  9657  7673  7772   un
  9658  7675  7718   un
  9659  7676  7677   un
  9660  7676  7682   un
  9661  7676  7698   un
  9662  7676  7706    1
  9663  7676  7710    1
  9664  7676  7715   un
  9665  7676  7718   un
  9666  7677  7681   un
  9667  7678  7679   un
  9668  7678  7681   un
  9669  7678  7712   un
  9670  7679  7680    1
  9671  7679  7754   un
  9672  7681  7711   un
  9673  7682  7686   un
  9674  7683  7684   un
  9675  7683  7686   un
  9676  7683  7700   un
  9677  7684  7685    1
  9678  7684  7755   un
  9679  7686  7699   un
  9680  7687  7688   un
  9681  7687  7693   un
  9682  7687  7698   un
  9683  7687  7702    1
  9684  7687  7714    1
  9685  7687  7721   un
  9686  7687  7724   un
  9687  7688  7692   un
  9688  7689  7690   un
  9689  7689  7692   un
  9690  7689  7704   un
  9691  7690  7691    1
  9692  7690  7756   un
  9693  7692  7703   un
  9694  7693  7697   un
  9695  7694  7695   un
  9696  7694  7697   un
  9697  7694  7708   un
  9698  7695  7696    1
  9699  7695  7753   un
  9700  7697  7707   un
  9701  7698  7699   un
  9702  7698  7702    1
  9703  7698  7703   un
  9704  7698  7706    1
  9705  7698  7743   un
  9706  7698  7746   un
  9707  7700  7701    1
  9708  7700  7752   un
  9709  7704  7705    1
  9710  7704  7749   un
  9711  7708  7709    1
  9712  7708  7750   un
  9713  7712  7713    1
  9714  7712  7751   un
  9715  7716  7717    1
  9716  7716  7767   un
  9717  7719  7720    1
  9718  7719  7766   un
  9719  7722  7723    1
  9720  7722  7765   un
  9721  7725  7726    1
  9722  7725  7768   un
  9723  7727  7731   un
  9724  7728  7729   un
  9725  7728  7731   un
  9726  7728  7747   un
  9727  7729  7730    1
  9728  7729  7758   un
  9729  7731  7746   un
  9730  7733  7734    1
  9731  7733  7759   un
  9732  7736  7737    1
  9733  7736  7760   un
  9734  7738  7742   un
  9735  7739  7740   un
  9736  7739  7742   un
  9737  7739  7744   un
  9738  7740  7741    1
  9739  7740  7757   un
  9740  7742  7743   un
  9741  7744  7745    1
  9742  7744  7762   un
  9743  7747  7748    1
  9744  7747  7763   un
  9745  7773  7774   un
  9746  7773  7778    1
  9747  7773  7780   un
  9748  7773  7784    1
  9749  7773  7786   un
  9750  7773  7798   un
  9751  7773  7810   un
  9752  7773  7821   un
  9753  7773  7841   un
  9754  7773  7844    1
  9755  7773  7845   un
  9756  7773  7848    1
  9757  7774  7779   un
  9758  7775  7776   un
  9759  7775  7779   un
  9760  7775  7867   un
  9761  7776  7777    1
  9762  7776  7898   un
  9763  7778  7798    1
  9764  7778  7821    1
  9765  7779  7866   un
  9766  7780  7785   un
  9767  7781  7782   un
  9768  7781  7785   un
  9769  7781  7870   un
  9770  7782  7783    1
  9771  7782  7895   un
  9772  7784  7786    1
  9773  7784  7810    1
  9774  7785  7869   un
  9775  7786  7787   un
  9776  7786  7791    1
  9777  7786  7793   un
  9778  7786  7810   un
  9779  7786  7821   un
  9780  7786  7832   un
  9781  7786  7840    1
  9782  7786  7848    1
  9783  7786  7861   un
  9784  7786  7866   un
  9785  7787  7792   un
  9786  7788  7789   un
  9787  7788  7792   un
  9788  7788  7850   un
  9789  7789  7790    1
  9790  7789  7905   un
  9791  7791  7821    1
  9792  7791  7832    1
  9793  7792  7849   un
  9794  7793  7797   un
  9795  7794  7795   un
  9796  7794  7797   un
  9797  7794  7859   un
  9798  7795  7796    1
  9799  7795  7904   un
  9800  7797  7858   un
  9801  7798  7799   un
  9802  7798  7803    1
  9803  7798  7805   un
  9804  7798  7810   un
  9805  7798  7821   un
  9806  7798  7832   un
  9807  7798  7836    1
  9808  7798  7844    1
  9809  7798  7869   un
  9810  7798  7872   un
  9811  7799  7804   un
  9812  7800  7801   un
  9813  7800  7804   un
  9814  7800  7856   un
  9815  7801  7802    1
  9816  7801  7903   un
  9817  7803  7810    1
  9818  7803  7832    1
  9819  7804  7855   un
  9820  7805  7809   un
  9821  7806  7807   un
  9822  7806  7809   un
  9823  7806  7853   un
  9824  7807  7808    1
  9825  7807  7906   un
  9826  7809  7852   un
  9827  7810  7811   un
  9828  7810  7816   un
  9829  7810  7832   un
  9830  7810  7840    1
  9831  7810  7844    1
  9832  7810  7849   un
  9833  7810  7852   un
  9834  7811  7815   un
  9835  7812  7813   un
  9836  7812  7815   un
  9837  7812  7846   un
  9838  7813  7814    1
  9839  7813  7888   un
  9840  7815  7845   un
  9841  7816  7820   un
  9842  7817  7818   un
  9843  7817  7820   un
  9844  7817  7834   un
  9845  7818  7819    1
  9846  7818  7889   un
  9847  7820  7833   un
  9848  7821  7822   un
  9849  7821  7827   un
  9850  7821  7832   un
  9851  7821  7836    1
  9852  7821  7848    1
  9853  7821  7855   un
  9854  7821  7858   un
  9855  7822  7826   un
  9856  7823  7824   un
  9857  7823  7826   un
  9858  7823  7838   un
  9859  7824  7825    1
  9860  7824  7890   un
  9861  7826  7837   un
  9862  7827  7831   un
  9863  7828  7829   un
  9864  7828  7831   un
  9865  7828  7842   un
  9866  7829  7830    1
  9867  7829  7887   un
  9868  7831  7841   un
  9869  7832  7833   un
  9870  7832  7836    1
  9871  7832  7837   un
  9872  7832  7840    1
  9873  7832  7877   un
  9874  7832  7880   un
  9875  7834  7835    1
  9876  7834  7886   un
  9877  7838  7839    1
  9878  7838  7883   un
  9879  7842  7843    1
  9880  7842  7884   un
  9881  7846  7847    1
  9882  7846  7885   un
  9883  7850  7851    1
  9884  7850  7901   un
  9885  7853  7854    1
  9886  7853  7900   un
  9887  7856  7857    1
  9888  7856  7899   un
  9889  7859  7860    1
  9890  7859  7902   un
  9891  7861  7865   un
  9892  7862  7863   un
  9893  7862  7865   un
  9894  7862  7881   un
  9895  7863  7864    1
  9896  7863  7892   un
  9897  7865  7880   un
  9898  7867  7868    1
  9899  7867  7893   un
  9900  7870  7871    1
  9901  7870  7894   un
  9902  7872  7876   un
  9903  7873  7874   un
  9904  7873  7876   un
  9905  7873  7878   un
  9906  7874  7875    1
  9907  7874  7891   un
  9908  7876  7877   un
  9909  7878  7879    1
  9910  7878  7896   un
  9911  7881  7882    1
  9912  7881  7897   un
  9913  7907  7908   un
  9914  7907  7912    1
  9915  7907  7914   un
  9916  7907  7918    1
  9917  7907  7920   un
  9918  7907  7932   un
  9919  7907  7944   un
  9920  7907  7955   un
  9921  7907  7975   un
  9922  7907  7978    1
  9923  7907  7979   un
  9924  7907  7982    1
  9925  7908  7913   un
  9926  7909  7910   un
  9927  7909  7913   un
  9928  7909  8001   un
  9929  7910  7911    1
  9930  7910  8032   un
  9931  7912  7932    1
  9932  7912  7955    1
  9933  7913  8000   un
  9934  7914  7919   un
  9935  7915  7916   un
  9936  7915  7919   un
  9937  7915  8004   un
  9938  7916  7917    1
  9939  7916  8029   un
  9940  7918  7920    1
  9941  7918  7944    1
  9942  7919  8003   un
  9943  7920  7921   un
  9944  7920  7925    1
  9945  7920  7927   un
  9946  7920  7944   un
  9947  7920  7955   un
  9948  7920  7966   un
  9949  7920  7974    1
  9950  7920  7982    1
  9951  7920  7995   un
  9952  7920  8000   un
  9953  7921  7926   un
  9954  7922  7923   un
  9955  7922  7926   un
  9956  7922  7984   un
  9957  7923  7924    1
  9958  7923  8039   un
  9959  7925  7955    1
  9960  7925  7966    1
  9961  7926  7983   un
  9962  7927  7931   un
  9963  7928  7929   un
  9964  7928  7931   un
  9965  7928  7993   un
  9966  7929  7930    1
  9967  7929  8038   un
  9968  7931  7992   un
  9969  7932  7933   un
  9970  7932  7937    1
  9971  7932  7939   un
  9972  7932  7944   un
  9973  7932  7955   un
  9974  7932  7966   un
  9975  7932  7970    1
  9976  7932  7978    1
  9977  7932  8003   un
  9978  7932  8006   un
  9979  7933  7938   un
  9980  7934  7935   un
  9981  7934  7938   un
  9982  7934  7990   un
  9983  7935  7936    1
  9984  7935  8037   un
  9985  7937  7944    1
  9986  7937  7966    1
  9987  7938  7989   un
  9988  7939  7943   un
  9989  7940  7941   un
  9990  7940  7943   un
  9991  7940  7987   un
  9992  7941  7942    1
  9993  7941  8040   un
  9994  7943  7986   un
  9995  7944  7945   un
  9996  7944  7950   un
  9997  7944  7966   un
  9998  7944  7974    1
  9999  7944  7978    1
 10000  7944  7983   un
 10001  7944  7986   un
 10002  7945  7949   un
 10003  7946  7947   un
 10004  7946  7949   un
 10005  7946  7980   un
 10006  7947  7948    1
 10007  7947  8022   un
 10008  7949  7979   un
 10009  7950  7954   un
 10010  7951  7952   un
 10011  7951  7954   un
 10012  7951  7968   un
 10013  7952  7953    1
 10014  7952  8023   un
 10015  7954  7967   un
 10016  7955  7956   un
 10017  7955  7961   un
 10018  7955  7966   un
 10019  7955  7970    1
 10020  7955  7982    1
 10021  7955  7989   un
 10022  7955  7992   un
 10023  7956  7960   un
 10024  7957  7958   un
 10025  7957  7960   un
 10026  7957  7972   un
 10027  7958  7959    1
 10028  7958  8024   un
 10029  7960  7971   un
 10030  7961  7965   un
 10031  7962  7963   un
 10032  7962  7965   un
 10033  7962  7976   un
 10034  7963  7964    1
 10035  7963  8021   un
 10036  7965  7975   un
 10037  7966  7967   un
 10038  7966  7970    1
 10039  7966  7971   un
 10040  7966  7974    1
 10041  7966  8011   un
 10042  7966  8014   un
 10043  7968  7969    1
 10044  7968  8020   un
 10045  7972  7973    1
 10046  7972  8017   un
 10047  7976  7977    1
 10048  7976  8018   un
 10049  7980  7981    1
 10050  7980  8019   un
 10051  7984  7985    1
 10052  7984  8035   un
 10053  7987  7988    1
 10054  7987  8034   un
 10055  7990  7991    1
 10056  7990  8033   un
 10057  7993  7994    1
 10058  7993  8036   un
 10059  7995  7999   un
 10060  7996  7997   un
 10061  7996  7999   un
 10062  7996  8015   un
 10063  7997  7998    1
 10064  7997  8026   un
 10065  7999  8014   un
 10066  8001  8002    1
 10067  8001  8027   un
 10068  8004  8005    1
 10069  8004  8028   un
 10070  8006  8010   un
 10071  8007  8008   un
 10072  8007  8010   un
 10073  8007  8012   un
 10074  8008  8009    1
 10075  8008  8025   un
 10076  8010  8011   un
 10077  8012  8013    1
 10078  8012  8030   un
 10079  8015  8016    1
 10080  8015  8031   un
 10081  8041  8042   un
 10082  8041  8046    1
 10083  8041  8048   un
 10084  8041  8052    1
 10085  8041  8054   un
 10086  8041  8066   un
 10087  8041  8078   un
 10088  8041  8089   un
 10089  8041  8109   un
 10090  8041  8112    1
 10091  8041  8113   un
 10092  8041  8116    1
 10093  8042  8047   un
 10094  8043  8044   un
 10095  8043  8047   un
 10096  8043  8135   un
 10097  8044  8045    1
 10098  8044  8166   un
 10099  8046  8066    1
 10100  8046  8089    1
 10101  8047  8134   un
 10102  8048  8053   un
 10103  8049  8050   un
 10104  8049  8053   un
 10105  8049  8138   un
 10106  8050  8051    1
 10107  8050  8163   un
 10108  8052  8054    1
 10109  8052  8078    1
 10110  8053  8137   un
 10111  8054  8055   un
 10112  8054  8059    1
 10113  8054  8061   un
 10114  8054  8078   un
 10115  8054  8089   un
 10116  8054  8100   un
 10117  8054  8108    1
 10118  8054  8116    1
 10119  8054  8129   un
 10120  8054  8134   un
 10121  8055  8060   un
 10122  8056  8057   un
 10123  8056  8060   un
 10124  8056  8118   un
 10125  8057  8058    1
 10126  8057  8173   un
 10127  8059  8089    1
 10128  8059  8100    1
 10129  8060  8117   un
 10130  8061  8065   un
 10131  8062  8063   un
 10132  8062  8065   un
 10133  8062  8127   un
 10134  8063  8064    1
 10135  8063  8172   un
 10136  8065  8126   un
 10137  8066  8067   un
 10138  8066  8071    1
 10139  8066  8073   un
 10140  8066  8078   un
 10141  8066  8089   un
 10142  8066  8100   un
 10143  8066  8104    1
 10144  8066  8112    1
 10145  8066  8137   un
 10146  8066  8140   un
 10147  8067  8072   un
 10148  8068  8069   un
 10149  8068  8072   un
 10150  8068  8124   un
 10151  8069  8070    1
 10152  8069  8171   un
 10153  8071  8078    1
 10154  8071  8100    1
 10155  8072  8123   un
 10156  8073  8077   un
 10157  8074  8075   un
 10158  8074  8077   un
 10159  8074  8121   un
 10160  8075  8076    1
 10161  8075  8174   un
 10162  8077  8120   un
 10163  8078  8079   un
 10164  8078  8084   un
 10165  8078  8100   un
 10166  8078  8108    1
 10167  8078  8112    1
 10168  8078  8117   un
 10169  8078  8120   un
 10170  8079  8083   un
 10171  8080  8081   un
 10172  8080  8083   un
 10173  8080  8114   un
 10174  8081  8082    1
 10175  8081  8156   un
 10176  8083  8113   un
 10177  8084  8088   un
 10178  8085  8086   un
 10179  8085  8088   un
 10180  8085  8102   un
 10181  8086  8087    1
 10182  8086  8157   un
 10183  8088  8101   un
 10184  8089  8090   un
 10185  8089  8095   un
 10186  8089  8100   un
 10187  8089  8104    1
 10188  8089  8116    1
 10189  8089  8123   un
 10190  8089  8126   un
 10191  8090  8094   un
 10192  8091  8092   un
 10193  8091  8094   un
 10194  8091  8106   un
 10195  8092  8093    1
 10196  8092  8158   un
 10197  8094  8105   un
 10198  8095  8099   un
 10199  8096  8097   un
 10200  8096  8099   un
 10201  8096  8110   un
 10202  8097  8098    1
 10203  8097  8155   un
 10204  8099  8109   un
 10205  8100  8101   un
 10206  8100  8104    1
 10207  8100  8105   un
 10208  8100  8108    1
 10209  8100  8145   un
 10210  8100  8148   un
 10211  8102  8103    1
 10212  8102  8154   un
 10213  8106  8107    1
 10214  8106  8151   un
 10215  8110  8111    1
 10216  8110  8152   un
 10217  8114  8115    1
 10218  8114  8153   un
 10219  8118  8119    1
 10220  8118  8169   un
 10221  8121  8122    1
 10222  8121  8168   un
 10223  8124  8125    1
 10224  8124  8167   un
 10225  8127  8128    1
 10226  8127  8170   un
 10227  8129  8133   un
 10228  8130  8131   un
 10229  8130  8133   un
 10230  8130  8149   un
 10231  8131  8132    1
 10232  8131  8160   un
 10233  8133  8148   un
 10234  8135  8136    1
 10235  8135  8161   un
 10236  8138  8139    1
 10237  8138  8162   un
 10238  8140  8144   un
 10239  8141  8142   un
 10240  8141  8144   un
 10241  8141  8146   un
 10242  8142  8143    1
 10243  8142  8159   un
 10244  8144  8145   un
 10245  8146  8147    1
 10246  8146  8164   un
 10247  8149  8150    1
 10248  8149  8165   un
 10249  8175  8176   un
 10250  8175  8180    1
 10251  8175  8182   un
 10252  8175  8186    1
 10253  8175  8188   un
 10254  8175  8200   un
 10255  8175  8212   un
 10256  8175  8223   un
 10257  8175  8243   un
 10258  8175  8246    1
 10259  8175  8247   un
 10260  8175  8250    1
 10261  8176  8181   un
 10262  8177  8178   un
 10263  8177  8181   un
 10264  8177  8269   un
 10265  8178  8179    1
 10266  8178  8300   un
 10267  8180  8200    1
 10268  8180  8223    1
 10269  8181  8268   un
 10270  8182  8187   un
 10271  8183  8184   un
 10272  8183  8187   un
 10273  8183  8272   un
 10274  8184  8185    1
 10275  8184  8297   un
 10276  8186  8188    1
 10277  8186  8212    1
 10278  8187  8271   un
 10279  8188  8189   un
 10280  8188  8193    1
 10281  8188  8195   un
 10282  8188  8212   un
 10283  8188  8223   un
 10284  8188  8234   un
 10285  8188  8242    1
 10286  8188  8250    1
 10287  8188  8263   un
 10288  8188  8268   un
 10289  8189  8194   un
 10290  8190  8191   un
 10291  8190  8194   un
 10292  8190  8252   un
 10293  8191  8192    1
 10294  8191  8307   un
 10295  8193  8223    1
 10296  8193  8234    1
 10297  8194  8251   un
 10298  8195  8199   un
 10299  8196  8197   un
 10300  8196  8199   un
 10301  8196  8261   un
 10302  8197  8198    1
 10303  8197  8306   un
 10304  8199  8260   un
 10305  8200  8201   un
 10306  8200  8205    1
 10307  8200  8207   un
 10308  8200  8212   un
 10309  8200  8223   un
 10310  8200  8234   un
 10311  8200  8238    1
 10312  8200  8246    1
 10313  8200  8271   un
 10314  8200  8274   un
 10315  8201  8206   un
 10316  8202  8203   un
 10317  8202  8206   un
 10318  8202  8258   un
 10319  8203  8204    1
 10320  8203  8305   un
 10321  8205  8212    1
 10322  8205  8234    1
 10323  8206  8257   un
 10324  8207  8211   un
 10325  8208  8209   un
 10326  8208  8211   un
 10327  8208  8255   un
 10328  8209  8210    1
 10329  8209  8308   un
 10330  8211  8254   un
 10331  8212  8213   un
 10332  8212  8218   un
 10333  8212  8234   un
 10334  8212  8242    1
 10335  8212  8246    1
 10336  8212  8251   un
 10337  8212  8254   un
 10338  8213  8217   un
 10339  8214  8215   un
 10340  8214  8217   un
 10341  8214  8248   un
 10342  8215  8216    1
 10343  8215  8290   un
 10344  8217  8247   un
 10345  8218  8222   un
 10346  8219  8220   un
 10347  8219  8222   un
 10348  8219  8236   un
 10349  8220  8221    1
 10350  8220  8291   un
 10351  8222  8235   un
 10352  8223  8224   un
 10353  8223  8229   un
 10354  8223  8234   un
 10355  8223  8238    1
 10356  8223  8250    1
 10357  8223  8257   un
 10358  8223  8260   un
 10359  8224  8228   un
 10360  8225  8226   un
 10361  8225  8228   un
 10362  8225  8240   un
 10363  8226  8227    1
 10364  8226  8292   un
 10365  8228  8239   un
 10366  8229  8233   un
 10367  8230  8231   un
 10368  8230  8233   un
 10369  8230  8244   un
 10370  8231  8232    1
 10371  8231  8289   un
 10372  8233  8243   un
 10373  8234  8235   un
 10374  8234  8238    1
 10375  8234  8239   un
 10376  8234  8242    1
 10377  8234  8279   un
 10378  8234  8282   un
 10379  8236  8237    1
 10380  8236  8288   un
 10381  8240  8241    1
 10382  8240  8285   un
 10383  8244  8245    1
 10384  8244  8286   un
 10385  8248  8249    1
 10386  8248  8287   un
 10387  8252  8253    1
 10388  8252  8303   un
 10389  8255  8256    1
 10390  8255  8302   un
 10391  8258  8259    1
 10392  8258  8301   un
 10393  8261  8262    1
 10394  8261  8304   un
 10395  8263  8267   un
 10396  8264  8265   un
 10397  8264  8267   un
 10398  8264  8283   un
 10399  8265  8266    1
 10400  8265  8294   un
 10401  8267  8282   un
 10402  8269  8270    1
 10403  8269  8295   un
 10404  8272  8273    1
 10405  8272  8296   un
 10406  8274  8278   un
 10407  8275  8276   un
 10408  8275  8278   un
 10409  8275  8280   un
 10410  8276  8277    1
 10411  8276  8293   un
 10412  8278  8279   un
 10413  8280  8281    1
 10414  8280  8298   un
 10415  8283  8284    1
 10416  8283  8299   un
 10417  8309  8310   un
 10418  8309  8314    1
 10419  8309  8316   un
 10420  8309  8320    1
 10421  8309  8322   un
 10422  8309  8334   un
 10423  8309  8346   un
 10424  8309  8357   un
 10425  8309  8377   un
 10426  8309  8380    1
 10427  8309  8381   un
 10428  8309  8384    1
 10429  8310  8315   un
 10430  8311  8312   un
 10431  8311  8315   un
 10432  8311  8403   un
 10433  8312  8313    1
 10434  8312  8434   un
 10435  8314  8334    1
 10436  8314  8357    1
 10437  8315  8402   un
 10438  8316  8321   un
 10439  8317  8318   un
 10440  8317  8321   un
 10441  8317  8406   un
 10442  8318  8319    1
 10443  8318  8431   un
 10444  8320  8322    1
 10445  8320  8346    1
 10446  8321  8405   un
 10447  8322  8323   un
 10448  8322  8327    1
 10449  8322  8329   un
 10450  8322  8346   un
 10451  8322  8357   un
 10452  8322  8368   un
 10453  8322  8376    1
 10454  8322  8384    1
 10455  8322  8397   un
 10456  8322  8402   un
 10457  8323  8328   un
 10458  8324  8325   un
 10459  8324  8328   un
 10460  8324  8386   un
 10461  8325  8326    1
 10462  8325  8441   un
 10463  8327  8357    1
 10464  8327  8368    1
 10465  8328  8385   un
 10466  8329  8333   un
 10467  8330  8331   un
 10468  8330  8333   un
 10469  8330  8395   un
 10470  8331  8332    1
 10471  8331  8440   un
 10472  8333  8394   un
 10473  8334  8335   un
 10474  8334  8339    1
 10475  8334  8341   un
 10476  8334  8346   un
 10477  8334  8357   un
 10478  8334  8368   un
 10479  8334  8372    1
 10480  8334  8380    1
 10481  8334  8405   un
 10482  8334  8408   un
 10483  8335  8340   un
 10484  8336  8337   un
 10485  8336  8340   un
 10486  8336  8392   un
 10487  8337  8338    1
 10488  8337  8439   un
 10489  8339  8346    1
 10490  8339  8368    1
 10491  8340  8391   un
 10492  8341  8345   un
 10493  8342  8343   un
 10494  8342  8345   un
 10495  8342  8389   un
 10496  8343  8344    1
 10497  8343  8442   un
 10498  8345  8388   un
 10499  8346  8347   un
 10500  8346  8352   un
 10501  8346  8368   un
 10502  8346  8376    1
 10503  8346  8380    1
 10504  8346  8385   un
 10505  8346  8388   un
 10506  8347  8351   un
 10507  8348  8349   un
 10508  8348  8351   un
 10509  8348  8382   un
 10510  8349  8350    1
 10511  8349  8424   un
 10512  8351  8381   un
 10513  8352  8356   un
 10514  8353  8354   un
 10515  8353  8356   un
 10516  8353  8370   un
 10517  8354  8355    1
 10518  8354  8425   un
 10519  8356  8369   un
 10520  8357  8358   un
 10521  8357  8363   un
 10522  8357  8368   un
 10523  8357  8372    1
 10524  8357  8384    1
 10525  8357  8391   un
 10526  8357  8394   un
 10527  8358  8362   un
 10528  8359  8360   un
 10529  8359  8362   un
 10530  8359  8374   un
 10531  8360  8361    1
 10532  8360  8426   un
 10533  8362  8373   un
 10534  8363  8367   un
 10535  8364  8365   un
 10536  8364  8367   un
 10537  8364  8378   un
 10538  8365  8366    1
 10539  8365  8423   un
 10540  8367  8377   un
 10541  8368  8369   un
 10542  8368  8372    1
 10543  8368  8373   un
 10544  8368  8376    1
 10545  8368  8413   un
 10546  8368  8416   un
 10547  8370  8371    1
 10548  8370  8422   un
 10549  8374  8375    1
 10550  8374  8419   un
 10551  8378  8379    1
 10552  8378  8420   un
 10553  8382  8383    1
 10554  8382  8421   un
 10555  8386  8387    1
 10556  8386  8437   un
 10557  8389  8390    1
 10558  8389  8436   un
 10559  8392  8393    1
 10560  8392  8435   un
 10561  8395  8396    1
 10562  8395  8438   un
 10563  8397  8401   un
 10564  8398  8399   un
 10565  8398  8401   un
 10566  8398  8417   un
 10567  8399  8400    1
 10568  8399  8428   un
 10569  8401  8416   un
 10570  8403  8404    1
 10571  8403  8429   un
 10572  8406  8407    1
 10573  8406  8430   un
 10574  8408  8412   un
 10575  8409  8410   un
 10576  8409  8412   un
 10577  8409  8414   un
 10578  8410  8411    1
 10579  8410  8427   un
 10580  8412  8413   un
 10581  8414  8415    1
 10582  8414  8432   un
 10583  8417  8418    1
 10584  8417  8433   un
@<TRIPOS>SUBSTRUCTURE
     1 RES1        1 GROUP             0 ****  ****    0          
     2 RES2      135 GROUP             0 ****  ****    0          
     3 RES3      269 GROUP             0 ****  ****    0          
     4 RES4      403 GROUP             0 ****  ****    0          
     5 RES5      537 GROUP             0 ****  ****    0          
     6 RES6      671 GROUP             0 ****  ****    0          
     7 RES7      805 GROUP             0 ****  ****    0          
     8 RES8      939 GROUP             0 ****  ****    0          
     9 RES9     1073 GROUP             0 ****  ****    0          
    10 RES10    1207 GROUP             0 ****  ****    0          
    11 RES11    1341 GROUP             0 ****  ****    0          
    12 RES12    1475 GROUP             0 ****  ****    0          
    13 RES13    1609 GROUP             0 ****  ****    0          
    14 RES14    1743 GROUP             0 ****  ****    0          
    15 RES15    1877 GROUP             0 ****  ****    0          
    16 RES16    2011 GROUP             0 ****  ****    0          
    17 RES17    2145 GROUP             0 ****  ****    0          
    18 RES18    2279 GROUP             0 ****  ****    0          
    19 RES19    2413 GROUP             0 ****  ****    0          
    20 RES20    2547 GROUP             0 ****  ****    0          
    21 RES21    2681 GROUP             0 ****  ****    0          
    22 RES22    2815 GROUP             0 ****  ****    0          
    23 RES23    2949 GROUP             0 ****  ****    0          
    24 RES24    3083 GROUP             0 ****  ****    0          
    25 RES25    3217 GROUP             0 ****  ****    0          
    26 RES26    3351 GROUP             0 ****  ****    0          
    27 RES27    3485 GROUP             0 ****  ****    0          
    28 RES28    3619 GROUP             0 ****  ****    0          
    29 RES29    3753 GROUP             0 ****  ****    0          
    30 RES30    3887 GROUP             0 ****  ****    0          
    31 RES31    4021 GROUP             0 ****  ****    0          
    32 RES32    4155 GROUP             0 ****  ****    0          
    33 RES33    4289 GROUP             0 ****  ****    0          
    34 RES34    4423 GROUP             0 ****  ****    0          
    35 RES35    4557 GROUP             0 ****  ****    0          
    36 RES36    4691 GROUP             0 ****  ****    0          
    37 RES37    4825 GROUP             0 ****  ****    0          
    38 RES38    4959 GROUP             0 ****  ****    0          
    39 RES39    5093 GROUP             0 ****  ****    0          
    40 RES40    5227 GROUP             0 ****  ****    0          
    41 RES41    5361 GROUP             0 ****  ****    0          
    42 RES42    5495 GROUP             0 ****  ****    0          
    43 RES43    5629 GROUP             0 ****  ****    0          
    44 RES44    5763 GROUP             0 ****  ****    0          
    45 RES45    5897 GROUP             0 ****  ****    0          
    46 RES46    6031 GROUP             0 ****  ****    0          
    47 RES47    6165 GROUP             0 ****  ****    0          
    48 RES48    6299 GROUP             0 ****  ****    0          
    49 RES49    6433 GROUP             0 ****  ****    0          
    50 RES50    6567 GROUP             0 ****  ****    0          
    51 RES51    6701 GROUP             0 ****  ****    0          
    52 RES52    6835 GROUP             0 ****  ****    0          
    53 RES53    6969 GROUP             0 ****  ****    0          
    54 RES54    7103 GROUP             0 ****  ****    0          
    55 RES55    7237 GROUP             0 ****  ****    0          
    56 RES56    7371 GROUP             0 ****  ****    0          
    57 RES57    7505 GROUP             0 ****  ****    0          
    58 RES58    7639 GROUP             0 ****  ****    0          
    59 RES59    7773 GROUP             0 ****  ****    0          
    60 RES60    7907 GROUP             0 ****  ****    0          
    61 RES61    8041 GROUP             0 ****  ****    0          
    62 RES62    8175 GROUP             0 ****  ****    0          
    63 RES63    8309 GROUP             0 ****  ****    0          
    64 RES64    8443 GROUP             0 ****  ****    0          
    65 RES65    8444 GROUP             0 ****  ****    0          
    66 RES66    8445 GROUP             0 ****  ****    0          
    67 RES67    8446 GROUP             0 ****  ****    0          
    68 RES68    8447 GROUP             0 ****  ****    0          
    69 RES69    8448 GROUP             0 ****  ****    0          
    70 RES70    8449 GROUP             0 ****  ****    0          
    71 RES71    8450 GROUP             0 ****  ****    0          
    72 RES72    8451 GROUP             0 ****  ****    0          
    73 RES73    8452 GROUP             0 ****  ****    0          
    74 RES74    8453 GROUP             0 ****  ****    0          
    75 RES75    8454 GROUP             0 ****  ****    0          
    76 RES76    8455 GROUP             0 ****  ****    0          
    77 RES77    8456 GROUP             0 ****  ****    0          
    78 RES78    8457 GROUP             0 ****  ****    0          
    79 RES79    8458 GROUP             0 ****  ****    0          
    80 RES80    8459 GROUP             0 ****  ****    0          
    81 RES81    8460 GROUP             0 ****  ****    0          
    82 RES82    8461 GROUP             0 ****  ****    0          
    83 RES83    8462 GROUP             0 ****  ****    0          
    84 RES84    8463 GROUP             0 ****  ****    0          
    85 RES85    8464 GROUP             0 ****  ****    0          
    86 RES86    8465 GROUP             0 ****  ****    0          
    87 RES87    8466 GROUP             0 ****  ****    0          
    88 RES88    8467 GROUP             0 ****  ****    0          
    89 RES89    8468 GROUP             0 ****  ****    0          
    90 RES90    8469 GROUP             0 ****  ****    0          
    91 RES91    8470 GROUP             0 ****  ****    0          
    92 RES92    8471 GROUP             0 ****  ****    0          
    93 RES93    8472 GROUP             0 ****  ****    0          
    94 RES94    8473 GROUP             0 ****  ****    0          
    95 RES95    8474 GROUP             0 ****  ****    0          
    96 RES96    8475 GROUP             0 ****  ****    0          
    97 RES97    8476 GROUP             0 ****  ****    0          
    98 RES98    8477 GROUP             0 ****  ****    0          
    99 RES99    8478 GROUP             0 ****  ****    0          
   100 RES100   8479 GROUP             0 ****  ****    0          
   101 RES101   8480 GROUP             0 ****  ****    0          
   102 RES102   8481 GROUP             0 ****  ****    0          
   103 RES103   8482 GROUP             0 ****  ****    0          
   104 RES104   8483 GROUP             0 ****  ****    0          
   105 RES105   8484 GROUP             0 ****  ****    0          
   106 RES106   8485 GROUP             0 ****  ****    0          
   107 RES107   8486 GROUP             0 ****  ****    0          
   108 RES108   8487 GROUP             0 ****  ****    0          
   109 RES109   8488 GROUP             0 ****  ****    0          
   110 RES110   8489 GROUP             0 ****  ****    0          
   111 RES111   8490 GROUP             0 ****  ****    0          
   112 RES112   8491 GROUP             0 ****  ****    0          
   113 RES113   8492 GROUP             0 ****  ****    0          
   114 RES114   8493 GROUP             0 ****  ****    0          
   115 RES115   8494 GROUP             0 ****  ****    0          
   116 RES116   8495 GROUP             0 ****  ****    0          
   117 RES117   8496 GROUP             0 ****  ****    0          
   118 RES118   8497 GROUP             0 ****  ****    0          
   119 RES119   8498 GROUP             0 ****  ****    0          
   120 RES120   8499 GROUP             0 ****  ****    0          
   121 RES121   8500 GROUP             0 ****  ****    0          
   122 RES122   8501 GROUP             0 ****  ****    0          
   123 RES123   8502 GROUP             0 ****  ****    0          
   124 RES124   8503 GROUP             0 ****  ****    0          
   125 RES125   8504 GROUP             0 ****  ****    0          
   126 RES126   8505 GROUP             0 ****  ****    0          
   127 RES127   8506 GROUP             0 ****  ****    0          
   128 RES128   8507 GROUP             0 ****  ****    0          
   129 RES129   8508 GROUP             0 ****  ****    0          
   130 RES130   8509 GROUP             0 ****  ****    0          
   131 RES131   8510 GROUP             0 ****  ****    0          
   132 RES132   8511 GROUP             0 ****  ****    0          
   133 RES133   8512 GROUP             0 ****  ****    0          
   134 RES134   8513 GROUP             0 ****  ****    0          
   135 RES135   8514 GROUP             0 ****  ****    0          
   136 RES136   8515 GROUP             0 ****  ****    0          
   137 RES137   8516 GROUP             0 ****  ****    0          
   138 RES138   8517 GROUP             0 ****  ****    0          
   139 RES139   8518 GROUP             0 ****  ****    0          
   140 RES140   8519 GROUP             0 ****  ****    0          
   141 RES141   8520 GROUP             0 ****  ****    0          
   142 RES142   8521 GROUP             0 ****  ****    0          
   143 RES143   8522 GROUP             0 ****  ****    0          
   144 RES144   8523 GROUP             0 ****  ****    0          
   145 RES145   8524 GROUP             0 ****  ****    0          
   146 RES146   8525 GROUP             0 ****  ****    0          
   147 RES147   8526 GROUP             0 ****  ****    0          
   148 RES148   8527 GROUP             0 ****  ****    0          
   149 RES149   8528 GROUP             0 ****  ****    0          
   150 RES150   8529 GROUP             0 ****  ****    0          
   151 RES151   8530 GROUP             0 ****  ****    0          
   152 RES152   8531 GROUP             0 ****  ****    0          
   153 RES153   8532 GROUP             0 ****  ****    0          
   154 RES154   8533 GROUP             0 ****  ****    0          
   155 RES155   8534 GROUP             0 ****  ****    0          
   156 RES156   8535 GROUP             0 ****  ****    0          
   157 RES157   8536 GROUP             0 ****  ****    0          
   158 RES158   8537 GROUP             0 ****  ****    0          
   159 RES159   8538 GROUP             0 ****  ****    0          
   160 RES160   8539 GROUP             0 ****  ****    0          
   161 RES161   8540 GROUP             0 ****  ****    0          
   162 RES162   8541 GROUP             0 ****  ****    0          
   163 RES163   8542 GROUP             0 ****  ****    0          
   164 RES164   8543 GROUP             0 ****  ****    0          
   165 RES165   8544 GROUP             0 ****  ****    0          
   166 RES166   8545 GROUP             0 ****  ****    0          
   167 RES167   8546 GROUP             0 ****  ****    0          
   168 RES168   8547 GROUP             0 ****  ****    0          
   169 RES169   8548 GROUP             0 ****  ****    0          
   170 RES170   8549 GROUP             0 ****  ****    0          
   171 RES171   8550 GROUP             0 ****  ****    0          
   172 RES172   8551 GROUP             0 ****  ****    0          
   173 RES173   8552 GROUP             0 ****  ****    0          
   174 RES174   8553 GROUP             0 ****  ****    0          
   175 RES175   8554 GROUP             0 ****  ****    0          
   176 RES176   8555 GROUP             0 ****  ****    0          
   177 RES177   8556 GROUP             0 ****  ****    0          
   178 RES178   8557 GROUP             0 ****  ****    0          
   179 RES179   8558 GROUP             0 ****  ****    0          
   180 RES180   8559 GROUP             0 ****  ****    0          
   181 RES181   8560 GROUP             0 ****  ****    0          
   182 RES182   8561 GROUP             0 ****  ****    0          
   183 RES183   8562 GROUP             0 ****  ****    0          
   184 RES184   8563 GROUP             0 ****  ****    0          
   185 RES185   8564 GROUP             0 ****  ****    0          
   186 RES186   8565 GROUP             0 ****  ****    0          
   187 RES187   8566 GROUP             0 ****  ****    0          
   188 RES188   8567 GROUP             0 ****  ****    0          
   189 RES189   8568 GROUP             0 ****  ****    0          
   190 RES190   8569 GROUP             0 ****  ****    0          
   191 RES191   8570 GROUP             0 ****  ****    0          
   192 RES192   8571 GROUP             0 ****  ****    0          
   193 RES193   8572 GROUP             0 ****  ****    0          
   194 RES194   8573 GROUP             0 ****  ****    0          
   195 RES195   8574 GROUP             0 ****  ****    0          
   196 RES196   8575 GROUP             0 ****  ****    0          
   197 RES197   8576 GROUP             0 ****  ****    0          
   198 RES198   8577 GROUP             0 ****  ****    0          
   199 RES199   8578 GROUP             0 ****  ****    0          
   200 RES200   8579 GROUP             0 ****  ****    0          
   201 RES201   8580 GROUP             0 ****  ****    0          
   202 RES202   8581 GROUP             0 ****  ****    0          
   203 RES203   8582 GROUP             0 ****  ****    0          
   204 RES204   8583 GROUP             0 ****  ****    0          
   205 RES205   8584 GROUP             0 ****  ****    0          
   206 RES206   8585 GROUP             0 ****  ****    0          
   207 RES207   8586 GROUP             0 ****  ****    0          
   208 RES208   8587 GROUP             0 ****  ****    0          
   209 RES209   8588 GROUP             0 ****  ****    0          
   210 RES210   8589 GROUP             0 ****  ****    0          
   211 RES211   8590 GROUP             0 ****  ****    0          
   212 RES212   8591 GROUP             0 ****  ****    0          
   213 RES213   8592 GROUP             0 ****  ****    0          
   214 RES214   8593 GROUP             0 ****  ****    0          
   215 RES215   8594 GROUP             0 ****  ****    0          
   216 RES216   8595 GROUP             0 ****  ****    0          
   217 RES217   8596 GROUP             0 ****  ****    0          
   218 RES218   8597 GROUP             0 ****  ****    0          
   219 RES219   8598 GROUP             0 ****  ****    0          
   220 RES220   8599 GROUP             0 ****  ****    0          
   221 RES221   8600 GROUP             0 ****  ****    0          
   222 RES222   8601 GROUP             0 ****  ****    0          
   223 RES223   8602 GROUP             0 ****  ****    0          
   224 RES224   8603 GROUP             0 ****  ****    0          
   225 RES225   8604 GROUP             0 ****  ****    0          
   226 RES226   8605 GROUP             0 ****  ****    0          
   227 RES227   8606 GROUP             0 ****  ****    0          
   228 RES228   8607 GROUP             0 ****  ****    0          
   229 RES229   8608 GROUP             0 ****  ****    0          
   230 RES230   8609 GROUP             0 ****  ****    0          
   231 RES231   8610 GROUP             0 ****  ****    0          
   232 RES232   8611 GROUP             0 ****  ****    0          
   233 RES233   8612 GROUP             0 ****  ****    0          
   234 RES234   8613 GROUP             0 ****  ****    0          
   235 RES235   8614 GROUP             0 ****  ****    0          
   236 RES236   8615 GROUP             0 ****  ****    0          
   237 RES237   8616 GROUP             0 ****  ****    0          
   238 RES238   8617 GROUP             0 ****  ****    0          
   239 RES239   8618 GROUP             0 ****  ****    0          
   240 RES240   8619 GROUP             0 ****  ****    0          
   241 RES241   8620 GROUP             0 ****  ****    0          
   242 RES242   8621 GROUP             0 ****  ****    0          
   243 RES243   8622 GROUP             0 ****  ****    0          
   244 RES244   8623 GROUP             0 ****  ****    0          
   245 RES245   8624 GROUP             0 ****  ****    0          
   246 RES246   8625 GROUP             0 ****  ****    0          
   247 RES247   8626 GROUP             0 ****  ****    0          
   248 RES248   8627 GROUP             0 ****  ****    0          
   249 RES249   8628 GROUP             0 ****  ****    0          
   250 RES250   8629 GROUP             0 ****  ****    0          
   251 RES251   8630 GROUP             0 ****  ****    0          
   252 RES252   8631 GROUP             0 ****  ****    0          
   253 RES253   8632 GROUP             0 ****  ****    0          
   254 RES254   8633 GROUP             0 ****  ****    0          
   255 RES255   8634 GROUP             0 ****  ****    0          
   256 RES256   8635 GROUP             0 ****  ****    0          
   257 RES257   8636 GROUP             0 ****  ****    0          
   258 RES258   8637 GROUP             0 ****  ****    0          
   259 RES259   8638 GROUP             0 ****  ****    0          
   260 RES260   8639 GROUP             0 ****  ****    0          
   261 RES261   8640 GROUP             0 ****  ****    0          
   262 RES262   8641 GROUP             0 ****  ****    0          
   263 RES263   8642 GROUP             0 ****  ****    0          
   264 RES264   8643 GROUP             0 ****  ****    0          
   265 RES265   8644 GROUP             0 ****  ****    0          
   266 RES266   8645 GROUP             0 ****  ****    0          
   267 RES267   8646 GROUP             0 ****  ****    0          
   268 RES268   8647 GROUP             0 ****  ****    0          
   269 RES269   8648 GROUP             0 ****  ****    0          
   270 RES270   8649 GROUP             0 ****  ****    0          
   271 RES271   8650 GROUP             0 ****  ****    0          
   272 RES272   8651 GROUP             0 ****  ****    0          
   273 RES273   8652 GROUP             0 ****  ****    0          
   274 RES274   8653 GROUP             0 ****  ****    0          
   275 RES275   8654 GROUP             0 ****  ****    0          
   276 RES276   8655 GROUP             0 ****  ****    0          
   277 RES277   8656 GROUP             0 ****  ****    0          
   278 RES278   8657 GROUP             0 ****  ****    0          
   279 RES279   8658 GROUP             0 ****  ****    0          
   280 RES280   8659 GROUP             0 ****  ****    0          
   281 RES281   8660 GROUP             0 ****  ****    0          
   282 RES282   8661 GROUP             0 ****  ****    0          
   283 RES283   8662 GROUP             0 ****  ****    0          
   284 RES284   8663 GROUP             0 ****  ****    0          
   285 RES285   8664 GROUP             0 ****  ****    0          
   286 RES286   8665 GROUP             0 ****  ****    0          
   287 RES287   8666 GROUP             0 ****  ****    0          
   288 RES288   8667 GROUP             0 ****  ****    0          
   289 RES289   8668 GROUP             0 ****  ****    0          
   290 RES290   8669 GROUP             0 ****  ****    0          
   291 RES291   8670 GROUP             0 ****  ****    0          
   292 RES292   8671 GROUP             0 ****  ****    0          
   293 RES293   8672 GROUP             0 ****  ****    0          
   294 RES294   8673 GROUP             0 ****  ****    0          
   295 RES295   8674 GROUP             0 ****  ****    0          
   296 RES296   8675 GROUP             0 ****  ****    0          
   297 RES297   8676 GROUP             0 ****  ****    0          
   298 RES298   8677 GROUP             0 ****  ****    0          
   299 RES299   8678 GROUP             0 ****  ****    0          
   300 RES300   8679 GROUP             0 ****  ****    0          
   301 RES301   8680 GROUP             0 ****  ****    0          
   302 RES302   8681 GROUP             0 ****  ****    0          
   303 RES303   8682 GROUP             0 ****  ****    0          
   304 RES304   8683 GROUP             0 ****  ****    0          
   305 RES305   8684 GROUP             0 ****  ****    0          
   306 RES306   8685 GROUP             0 ****  ****    0          
   307 RES307   8686 GROUP             0 ****  ****    0          
   308 RES308   8687 GROUP             0 ****  ****    0          
   309 RES309   8688 GROUP             0 ****  ****    0          
   310 RES310   8689 GROUP             0 ****  ****    0          
   311 RES311   8690 GROUP             0 ****  ****    0          
   312 RES312   8691 GROUP             0 ****  ****    0          
   313 RES313   8692 GROUP             0 ****  ****    0          
   314 RES314   8693 GROUP             0 ****  ****    0          
   315 RES315   8694 GROUP             0 ****  ****    0          
   316 RES316   8695 GROUP             0 ****  ****    0          
   317 RES317   8696 GROUP             0 ****  ****    0          
   318 RES318   8697 GROUP             0 ****  ****    0          
   319 RES319   8698 GROUP             0 ****  ****    0          
   320 RES320   8699 GROUP             0 ****  ****    0          
   321 RES321   8700 GROUP             0 ****  ****    0          
   322 RES322   8701 GROUP             0 ****  ****    0          
   323 RES323   8702 GROUP             0 ****  ****    0          
   324 RES324   8703 GROUP             0 ****  ****    0          
   325 RES325   8704 GROUP             0 ****  ****    0          
   326 RES326   8705 GROUP             0 ****  ****    0          
   327 RES327   8706 GROUP             0 ****  ****    0          
   328 RES328   8707 GROUP             0 ****  ****    0          
   329 RES329   8708 GROUP             0 ****  ****    0          
   330 RES330   8709 GROUP             0 ****  ****    0          
   331 RES331   8710 GROUP             0 ****  ****    0          
   332 RES332   8711 GROUP             0 ****  ****    0          
   333 RES333   8712 GROUP             0 ****  ****    0          
   334 RES334   8713 GROUP             0 ****  ****    0          
   335 RES335   8714 GROUP             0 ****  ****    0          
   336 RES336   8715 GROUP             0 ****  ****    0          
   337 RES337   8716 GROUP             0 ****  ****    0          
   338 RES338   8717 GROUP             0 ****  ****    0          
   339 RES339   8718 GROUP             0 ****  ****    0          
   340 RES340   8719 GROUP             0 ****  ****    0          
   341 RES341   8720 GROUP             0 ****  ****    0          
   342 RES342   8721 GROUP             0 ****  ****    0          
   343 RES343   8722 GROUP             0 ****  ****    0          
   344 RES344   8723 GROUP             0 ****  ****    0          
   345 RES345   8724 GROUP             0 ****  ****    0          
   346 RES346   8725 GROUP             0 ****  ****    0          
   347 RES347   8726 GROUP             0 ****  ****    0          
   348 RES348   8727 GROUP             0 ****  ****    0          
   349 RES349   8728 GROUP             0 ****  ****    0          
   350 RES350   8729 GROUP             0 ****  ****    0          
   351 RES351   8730 GROUP             0 ****  ****    0          
   352 RES352   8731 GROUP             0 ****  ****    0          
   353 RES353   8732 GROUP             0 ****  ****    0          
   354 RES354   8733 GROUP             0 ****  ****    0          
   355 RES355   8734 GROUP             0 ****  ****    0          
   356 RES356   8735 GROUP             0 ****  ****    0          
   357 RES357   8736 GROUP             0 ****  ****    0          
   358 RES358   8737 GROUP             0 ****  ****    0          
   359 RES359   8738 GROUP             0 ****  ****    0          
   360 RES360   8739 GROUP             0 ****  ****    0          
   361 RES361   8740 GROUP             0 ****  ****    0          
   362 RES362   8741 GROUP             0 ****  ****    0          
   363 RES363   8742 GROUP             0 ****  ****    0          
   364 RES364   8743 GROUP             0 ****  ****    0          
   365 RES365   8744 GROUP             0 ****  ****    0          
   366 RES366   8745 GROUP             0 ****  ****    0          
   367 RES367   8746 GROUP             0 ****  ****    0          
   368 RES368   8747 GROUP             0 ****  ****    0          
   369 RES369   8748 GROUP             0 ****  ****    0          
   370 RES370   8749 GROUP             0 ****  ****    0          
   371 RES371   8750 GROUP             0 ****  ****    0          
   372 RES372   8751 GROUP             0 ****  ****    0          
   373 RES373   8752 GROUP             0 ****  ****    0          
   374 RES374   8753 GROUP             0 ****  ****    0          
   375 RES375   8754 GROUP             0 ****  ****    0          
   376 RES376   8755 GROUP             0 ****  ****    0          
   377 RES377   8756 GROUP             0 ****  ****    0          
   378 RES378   8757 GROUP             0 ****  ****    0          
   379 RES379   8758 GROUP             0 ****  ****    0          
   380 RES380   8759 GROUP             0 ****  ****    0          
   381 RES381   8760 GROUP             0 ****  ****    0          
   382 RES382   8761 GROUP             0 ****  ****    0          
   383 RES383   8762 GROUP             0 ****  ****    0          
   384 RES384   8763 GROUP             0 ****  ****    0          
   385 RES385   8764 GROUP             0 ****  ****    0          
   386 RES386   8765 GROUP             0 ****  ****    0          
   387 RES387   8766 GROUP             0 ****  ****    0          
   388 RES388   8767 GROUP             0 ****  ****    0          
   389 RES389   8768 GROUP             0 ****  ****    0          
   390 RES390   8769 GROUP             0 ****  ****    0          
   391 RES391   8770 GROUP             0 ****  ****    0          
   392 RES392   8771 GROUP             0 ****  ****    0          
   393 RES393   8772 GROUP             0 ****  ****    0          
   394 RES394   8773 GROUP             0 ****  ****    0          
   395 RES395   8774 GROUP             0 ****  ****    0          
   396 RES396   8775 GROUP             0 ****  ****    0          
   397 RES397   8776 GROUP             0 ****  ****    0          
   398 RES398   8777 GROUP             0 ****  ****    0          
   399 RES399   8778 GROUP             0 ****  ****    0          
   400 RES400   8779 GROUP             0 ****  ****    0          
   401 RES401   8780 GROUP             0 ****  ****    0          
   402 RES402   8781 GROUP             0 ****  ****    0          
   403 RES403   8782 GROUP             0 ****  ****    0          
   404 RES404   8783 GROUP             0 ****  ****    0          
   405 RES405   8784 GROUP             0 ****  ****    0          
   406 RES406   8785 GROUP             0 ****  ****    0          
   407 RES407   8786 GROUP             0 ****  ****    0          
   408 RES408   8787 GROUP             0 ****  ****    0          
   409 RES409   8788 GROUP             0 ****  ****    0          
   410 RES410   8789 GROUP             0 ****  ****    0          
   411 RES411   8790 GROUP             0 ****  ****    0          
   412 RES412   8791 GROUP             0 ****  ****    0          
   413 RES413   8792 GROUP             0 ****  ****    0          
   414 RES414   8793 GROUP             0 ****  ****    0          
   415 RES415   8794 GROUP             0 ****  ****    0          
   416 RES416   8795 GROUP             0 ****  ****    0          
   417 RES417   8796 GROUP             0 ****  ****    0          
   418 RES418   8797 GROUP             0 ****  ****    0          
   419 RES419   8798 GROUP             0 ****  ****    0          
   420 RES420   8799 GROUP             0 ****  ****    0          
   421 RES421   8800 GROUP             0 ****  ****    0          
   422 RES422   8801 GROUP             0 ****  ****    0          
   423 RES423   8802 GROUP             0 ****  ****    0          
   424 RES424   8803 GROUP             0 ****  ****    0          
   425 RES425   8804 GROUP             0 ****  ****    0          
   426 RES426   8805 GROUP             0 ****  ****    0          
   427 RES427   8806 GROUP             0 ****  ****    0          
   428 RES428   8807 GROUP             0 ****  ****    0          
   429 RES429   8808 GROUP             0 ****  ****    0          
   430 RES430   8809 GROUP             0 ****  ****    0          
   431 RES431   8810 GROUP             0 ****  ****    0          
   432 RES432   8811 GROUP             0 ****  ****    0          
   433 RES433   8812 GROUP             0 ****  ****    0          
   434 RES434   8813 GROUP             0 ****  ****    0          
   435 RES435   8814 GROUP             0 ****  ****    0          
   436 RES436   8815 GROUP             0 ****  ****    0          
   437 RES437   8816 GROUP             0 ****  ****    0          
   438 RES438   8817 GROUP             0 ****  ****    0          
   439 RES439   8818 GROUP             0 ****  ****    0          
   440 RES440   8819 GROUP             0 ****  ****    0          
   441 RES441   8820 GROUP             0 ****  ****    0          
   442 RES442   8821 GROUP             0 ****  ****    0          
   443 RES443   8822 GROUP             0 ****  ****    0          
   444 RES444   8823 GROUP             0 ****  ****    0          
   445 RES445   8824 GROUP             0 ****  ****    0          
   446 RES446   8825 GROUP             0 ****  ****    0          
   447 RES447   8826 GROUP             0 ****  ****    0          
   448 RES448   8827 GROUP             0 ****  ****    0          
   449 RES449   8828 GROUP             0 ****  ****    0          
   450 RES450   8829 GROUP             0 ****  ****    0          
   451 RES451   8830 GROUP             0 ****  ****    0          
   452 RES452   8831 GROUP             0 ****  ****    0          
   453 RES453   8832 GROUP             0 ****  ****    0          
   454 RES454   8833 GROUP             0 ****  ****    0          
   455 RES455   8834 GROUP             0 ****  ****    0          
   456 RES456   8835 GROUP             0 ****  ****    0          
   457 RES457   8836 GROUP             0 ****  ****    0          
   458 RES458   8837 GROUP             0 ****  ****    0          
   459 RES459   8838 GROUP             0 ****  ****    0          
   460 RES460   8839 GROUP             0 ****  ****    0          
   461 RES461   8840 GROUP             0 ****  ****    0          
   462 RES462   8841 GROUP             0 ****  ****    0          
   463 RES463   8842 GROUP             0 ****  ****    0          
   464 RES464   8843 GROUP             0 ****  ****    0          
   465 RES465   8844 GROUP             0 ****  ****    0          
   466 RES466   8845 GROUP             0 ****  ****    0          
   467 RES467   8846 GROUP             0 ****  ****    0          
   468 RES468   8847 GROUP             0 ****  ****    0          
   469 RES469   8848 GROUP             0 ****  ****    0          
   470 RES470   8849 GROUP             0 ****  ****    0          
   471 RES471   8850 GROUP             0 ****  ****    0          
   472 RES472   8851 GROUP             0 ****  ****    0          
   473 RES473   8852 GROUP             0 ****  ****    0          
   474 RES474   8853 GROUP             0 ****  ****    0          
   475 RES475   8854 GROUP             0 ****  ****    0          
   476 RES476   8855 GROUP             0 ****  ****    0          
   477 RES477   8856 GROUP             0 ****  ****    0          
   478 RES478   8857 GROUP             0 ****  ****    0          
   479 RES479   8858 GROUP             0 ****  ****    0          
   480 RES480   8859 GROUP             0 ****  ****    0          
   481 RES481   8860 GROUP             0 ****  ****    0          
   482 RES482   8861 GROUP             0 ****  ****    0          
   483 RES483   8862 GROUP             0 ****  ****    0          
   484 RES484   8863 GROUP             0 ****  ****    0          
   485 RES485   8864 GROUP             0 ****  ****    0          
   486 RES486   8865 GROUP             0 ****  ****    0          
   487 RES487   8866 GROUP             0 ****  ****    0          
   488 RES488   8867 GROUP             0 ****  ****    0          
   489 RES489   8868 GROUP             0 ****  ****    0          
   490 RES490   8869 GROUP             0 ****  ****    0          
   491 RES491   8870 GROUP             0 ****  ****    0          
   492 RES492   8871 GROUP             0 ****  ****    0          
   493 RES493   8872 GROUP             0 ****  ****    0          
   494 RES494   8873 GROUP             0 ****  ****    0          
   495 RES495   8874 GROUP             0 ****  ****    0          
   496 RES496   8875 GROUP             0 ****  ****    0          
   497 RES497   8876 GROUP             0 ****  ****    0          
   498 RES498   8877 GROUP             0 ****  ****    0          
   499 RES499   8878 GROUP             0 ****  ****    0          
   500 RES500   8879 GROUP             0 ****  ****    0          
   501 RES501   8880 GROUP             0 ****  ****    0          
   502 RES502   8881 GROUP             0 ****  ****    0          
   503 RES503   8882 GROUP             0 ****  ****    0          
   504 RES504   8883 GROUP             0 ****  ****    0          
   505 RES505   8884 GROUP             0 ****  ****    0          
   506 RES506   8885 GROUP             0 ****  ****    0          
   507 RES507   8886 GROUP             0 ****  ****    0          
   508 RES508   8887 GROUP             0 ****  ****    0          
   509 RES509   8888 GROUP             0 ****  ****    0          
   510 RES510   8889 GROUP             0 ****  ****    0          
   511 RES511   8890 GROUP             0 ****  ****    0          
   512 RES512   8891 GROUP             0 ****  ****    0          
   513 RES513   8892 GROUP             0 ****  ****    0          
   514 RES514   8893 GROUP             0 ****  ****    0          
   515 RES515   8894 GROUP             0 ****  ****    0          
   516 RES516   8895 GROUP             0 ****  ****    0          
   517 RES517   8896 GROUP             0 ****  ****    0          
   518 RES518   8897 GROUP             0 ****  ****    0          
   519 RES519   8898 GROUP             0 ****  ****    0          
   520 RES520   8899 GROUP             0 ****  ****    0          
   521 RES521   8900 GROUP             0 ****  ****    0          
   522 RES522   8901 GROUP             0 ****  ****    0          
   523 RES523   8902 GROUP             0 ****  ****    0          
   524 RES524   8903 GROUP             0 ****  ****    0          
   525 RES525   8904 GROUP             0 ****  ****    0          
   526 RES526   8905 GROUP             0 ****  ****    0          
   527 RES527   8906 GROUP             0 ****  ****    0          
   528 RES528   8907 GROUP             0 ****  ****    0          
   529 RES529   8908 GROUP             0 ****  ****    0          
   530 RES530   8909 GROUP             0 ****  ****    0          
   531 RES531   8910 GROUP             0 ****  ****    0          
   532 RES532   8911 GROUP             0 ****  ****    0          
   533 RES533   8912 GROUP             0 ****  ****    0          
   534 RES534   8913 GROUP             0 ****  ****    0          
   535 RES535   8914 GROUP             0 ****  ****    0          
   536 RES536   8915 GROUP             0 ****  ****    0          
   537 RES537   8916 GROUP             0 ****  ****    0          
   538 RES538   8917 GROUP             0 ****  ****    0          
   539 RES539   8918 GROUP             0 ****  ****    0          
   540 RES540   8919 GROUP             0 ****  ****    0          
   541 RES541   8920 GROUP             0 ****  ****    0          
   542 RES542   8921 GROUP             0 ****  ****    0          
   543 RES543   8922 GROUP             0 ****  ****    0          
   544 RES544   8923 GROUP             0 ****  ****    0          
   545 RES545   8924 GROUP             0 ****  ****    0          
   546 RES546   8925 GROUP             0 ****  ****    0          
   547 RES547   8926 GROUP             0 ****  ****    0          
   548 RES548   8927 GROUP             0 ****  ****    0          
   549 RES549   8928 GROUP             0 ****  ****    0          
   550 RES550   8929 GROUP             0 ****  ****    0          
   551 RES551   8930 GROUP             0 ****  ****    0          
   552 RES552   8931 GROUP             0 ****  ****    0          
   553 RES553   8932 GROUP             0 ****  ****    0          
   554 RES554   8933 GROUP             0 ****  ****    0          
   555 RES555   8934 GROUP             0 ****  ****    0          
   556 RES556   8935 GROUP             0 ****  ****    0          
   557 RES557   8936 GROUP             0 ****  ****    0          
   558 RES558   8937 GROUP             0 ****  ****    0          
   559 RES559   8938 GROUP             0 ****  ****    0          
   560 RES560   8939 GROUP             0 ****  ****    0          
   561 RES561   8940 GROUP             0 ****  ****    0          
   562 RES562   8941 GROUP             0 ****  ****    0          
   563 RES563   8942 GROUP             0 ****  ****    0          
   564 RES564   8943 GROUP             0 ****  ****    0          
   565 RES565   8944 GROUP             0 ****  ****    0          
   566 RES566   8945 GROUP             0 ****  ****    0          
   567 RES567   8946 GROUP             0 ****  ****    0          
   568 RES568   8947 GROUP             0 ****  ****    0          
   569 RES569   8948 GROUP             0 ****  ****    0          
   570 RES570   8949 GROUP             0 ****  ****    0          
   571 RES571   8950 GROUP             0 ****  ****    0          
   572 RES572   8951 GROUP             0 ****  ****    0          
   573 RES573   8952 GROUP             0 ****  ****    0          
   574 RES574   8953 GROUP             0 ****  ****    0          
   575 RES575   8954 GROUP             0 ****  ****    0          
   576 RES576   8955 GROUP             0 ****  ****    0          
   577 RES577   8956 GROUP             0 ****  ****    0          
   578 RES578   8957 GROUP             0 ****  ****    0          
   579 RES579   8958 GROUP             0 ****  ****    0          
   580 RES580   8959 GROUP             0 ****  ****    0          
   581 RES581   8960 GROUP             0 ****  ****    0          
   582 RES582   8961 GROUP             0 ****  ****    0          
   583 RES583   8962 GROUP             0 ****  ****    0          
   584 RES584   8963 GROUP             0 ****  ****    0          
   585 RES585   8964 GROUP             0 ****  ****    0          
   586 RES586   8965 GROUP             0 ****  ****    0          
   587 RES587   8966 GROUP             0 ****  ****    0          
   588 RES588   8967 GROUP             0 ****  ****    0          
   589 RES589   8968 GROUP             0 ****  ****    0          
   590 RES590   8969 GROUP             0 ****  ****    0          
   591 RES591   8970 GROUP             0 ****  ****    0          
   592 RES592   8971 GROUP             0 ****  ****    0          
   593 RES593   8972 GROUP             0 ****  ****    0          
   594 RES594   8973 GROUP             0 ****  ****    0          
   595 RES595   8974 GROUP             0 ****  ****    0          
   596 RES596   8975 GROUP             0 ****  ****    0          
   597 RES597   8976 GROUP             0 ****  ****    0          
   598 RES598   8977 GROUP             0 ****  ****    0          
   599 RES599   8978 GROUP             0 ****  ****    0          
   600 RES600   8979 GROUP             0 ****  ****    0          
   601 RES601   8980 GROUP             0 ****  ****    0          
   602 RES602   8981 GROUP             0 ****  ****    0          
   603 RES603   8982 GROUP             0 ****  ****    0          
   604 RES604   8983 GROUP             0 ****  ****    0          
   605 RES605   8984 GROUP             0 ****  ****    0          
   606 RES606   8985 GROUP             0 ****  ****    0          
   607 RES607   8986 GROUP             0 ****  ****    0          
   608 RES608   8987 GROUP             0 ****  ****    0          
   609 RES609   8988 GROUP             0 ****  ****    0          
   610 RES610   8989 GROUP             0 ****  ****    0          
   611 RES611   8990 GROUP             0 ****  ****    0          
   612 RES612   8991 GROUP             0 ****  ****    0          
   613 RES613   8992 GROUP             0 ****  ****    0          
   614 RES614   8993 GROUP             0 ****  ****    0          
   615 RES615   8994 GROUP             0 ****  ****    0          
   616 RES616   8995 GROUP             0 ****  ****    0          
   617 RES617   8996 GROUP             0 ****  ****    0          
   618 RES618   8997 GROUP             0 ****  ****    0          
   619 RES619   8998 GROUP             0 ****  ****    0          
   620 RES620   8999 GROUP             0 ****  ****    0          
   621 RES621   9000 GROUP             0 ****  ****    0          
   622 RES622   9001 GROUP             0 ****  ****    0          
   623 RES623   9002 GROUP             0 ****  ****    0          
   624 RES624   9003 GROUP             0 ****  ****    0          
   625 RES625   9004 GROUP             0 ****  ****    0          
   626 RES626   9005 GROUP             0 ****  ****    0          
   627 RES627   9006 GROUP             0 ****  ****    0          
   628 RES628   9007 GROUP             0 ****  ****    0          
   629 RES629   9008 GROUP             0 ****  ****    0          
   630 RES630   9009 GROUP             0 ****  ****    0          
   631 RES631   9010 GROUP             0 ****  ****    0          
   632 RES632   9011 GROUP             0 ****  ****    0          
   633 RES633   9012 GROUP             0 ****  ****    0          
   634 RES634   9013 GROUP             0 ****  ****    0          
   635 RES635   9014 GROUP             0 ****  ****    0          
   636 RES636   9015 GROUP             0 ****  ****    0          
   637 RES637   9016 GROUP             0 ****  ****    0          
   638 RES638   9017 GROUP             0 ****  ****    0          
   639 RES639   9018 GROUP             0 ****  ****    0          
   640 RES640   9019 GROUP             0 ****  ****    0          
   641 RES641   9020 GROUP             0 ****  ****    0          
   642 RES642   9021 GROUP             0 ****  ****    0          
   643 RES643   9022 GROUP             0 ****  ****    0          
   644 RES644   9023 GROUP             0 ****  ****    0          
   645 RES645   9024 GROUP             0 ****  ****    0          
   646 RES646   9025 GROUP             0 ****  ****    0          
   647 RES647   9026 GROUP             0 ****  ****    0          
   648 RES648   9027 GROUP             0 ****  ****    0          
   649 RES649   9028 GROUP             0 ****  ****    0          
   650 RES650   9029 GROUP             0 ****  ****    0          
   651 RES651   9030 GROUP             0 ****  ****    0          
   652 RES652   9031 GROUP             0 ****  ****    0          
   653 RES653   9032 GROUP             0 ****  ****    0          
   654 RES654   9033 GROUP             0 ****  ****    0          
   655 RES655   9034 GROUP             0 ****  ****    0          
   656 RES656   9035 GROUP             0 ****  ****    0          
   657 RES657   9036 GROUP             0 ****  ****    0          
   658 RES658   9037 GROUP             0 ****  ****    0          
   659 RES659   9038 GROUP             0 ****  ****    0          
   660 RES660   9039 GROUP             0 ****  ****    0          
   661 RES661   9040 GROUP             0 ****  ****    0          
   662 RES662   9041 GROUP             0 ****  ****    0          
   663 RES663   9042 GROUP             0 ****  ****    0          
   664 RES664   9043 GROUP             0 ****  ****    0          
   665 RES665   9044 GROUP             0 ****  ****    0          
   666 RES666   9045 GROUP             0 ****  ****    0          
   667 RES667   9046 GROUP             0 ****  ****    0          
   668 RES668   9047 GROUP             0 ****  ****    0          
   669 RES669   9048 GROUP             0 ****  ****    0          
   670 RES670   9049 GROUP             0 ****  ****    0          
   671 RES671   9050 GROUP             0 ****  ****    0          
   672 RES672   9051 GROUP             0 ****  ****    0          
   673 RES673   9052 GROUP             0 ****  ****    0          
   674 RES674   9053 GROUP             0 ****  ****    0          
   675 RES675   9054 GROUP             0 ****  ****    0          
   676 RES676   9055 GROUP             0 ****  ****    0          
   677 RES677   9056 GROUP             0 ****  ****    0          
   678 RES678   9057 GROUP             0 ****  ****    0          
   679 RES679   9058 GROUP             0 ****  ****    0          
   680 RES680   9059 GROUP             0 ****  ****    0          
   681 RES681   9060 GROUP             0 ****  ****    0          
   682 RES682   9061 GROUP             0 ****  ****    0          
   683 RES683   9062 GROUP             0 ****  ****    0          
   684 RES684   9063 GROUP             0 ****  ****    0          
   685 RES685   9064 GROUP             0 ****  ****    0          
   686 RES686   9065 GROUP             0 ****  ****    0          
   687 RES687   9066 GROUP             0 ****  ****    0          
   688 RES688   9067 GROUP             0 ****  ****    0          
   689 RES689   9068 GROUP             0 ****  ****    0          
   690 RES690   9069 GROUP             0 ****  ****    0          
   691 RES691   9070 GROUP             0 ****  ****    0          
   692 RES692   9071 GROUP             0 ****  ****    0          
   693 RES693   9072 GROUP             0 ****  ****    0          
   694 RES694   9073 GROUP             0 ****  ****    0          
   695 RES695   9074 GROUP             0 ****  ****    0          
   696 RES696   9075 GROUP             0 ****  ****    0          
   697 RES697   9076 GROUP             0 ****  ****    0          
   698 RES698   9077 GROUP             0 ****  ****    0          
   699 RES699   9078 GROUP             0 ****  ****    0          
   700 RES700   9079 GROUP             0 ****  ****    0          
   701 RES701   9080 GROUP             0 ****  ****    0          
   702 RES702   9081 GROUP             0 ****  ****    0          
   703 RES703   9082 GROUP             0 ****  ****    0          
   704 RES704   9083 GROUP             0 ****  ****    0          
   705 RES705   9084 GROUP             0 ****  ****    0          
   706 RES706   9085 GROUP             0 ****  ****    0          
   707 RES707   9086 GROUP             0 ****  ****    0          
   708 RES708   9087 GROUP             0 ****  ****    0          
   709 RES709   9088 GROUP             0 ****  ****    0          
   710 RES710   9089 GROUP             0 ****  ****    0          
   711 RES711   9090 GROUP             0 ****  ****    0          
   712 RES712   9091 GROUP             0 ****  ****    0          
   713 RES713   9092 GROUP             0 ****  ****    0          
   714 RES714   9093 GROUP             0 ****  ****    0          
   715 RES715   9094 GROUP             0 ****  ****    0          
   716 RES716   9095 GROUP             0 ****  ****    0          
   717 RES717   9096 GROUP             0 ****  ****    0          
   718 RES718   9097 GROUP             0 ****  ****    0          
   719 RES719   9098 GROUP             0 ****  ****    0          
   720 RES720   9099 GROUP             0 ****  ****    0          
   721 RES721   9100 GROUP             0 ****  ****    0          
   722 RES722   9101 GROUP             0 ****  ****    0          
   723 RES723   9102 GROUP             0 ****  ****    0          
   724 RES724   9103 GROUP             0 ****  ****    0          
   725 RES725   9104 GROUP             0 ****  ****    0          
   726 RES726   9105 GROUP             0 ****  ****    0          
   727 RES727   9106 GROUP             0 ****  ****    0          
   728 RES728   9107 GROUP             0 ****  ****    0          
   729 RES729   9108 GROUP             0 ****  ****    0          
   730 RES730   9109 GROUP             0 ****  ****    0          
   731 RES731   9110 GROUP             0 ****  ****    0          
   732 RES732   9111 GROUP             0 ****  ****    0          
   733 RES733   9112 GROUP             0 ****  ****    0          
   734 RES734   9113 GROUP             0 ****  ****    0          
   735 RES735   9114 GROUP             0 ****  ****    0          
   736 RES736   9115 GROUP             0 ****  ****    0          
   737 RES737   9116 GROUP             0 ****  ****    0          
   738 RES738   9117 GROUP             0 ****  ****    0          
   739 RES739   9118 GROUP             0 ****  ****    0          
   740 RES740   9119 GROUP             0 ****  ****    0          
   741 RES741   9120 GROUP             0 ****  ****    0          
   742 RES742   9121 GROUP             0 ****  ****    0          
   743 RES743   9122 GROUP             0 ****  ****    0          
   744 RES744   9123 GROUP             0 ****  ****    0          
   745 RES745   9124 GROUP             0 ****  ****    0          
   746 RES746   9125 GROUP             0 ****  ****    0          
   747 RES747   9126 GROUP             0 ****  ****    0          
   748 RES748   9127 GROUP             0 ****  ****    0          
   749 RES749   9128 GROUP             0 ****  ****    0          
   750 RES750   9129 GROUP             0 ****  ****    0          
   751 RES751   9130 GROUP             0 ****  ****    0          
   752 RES752   9131 GROUP             0 ****  ****    0          
   753 RES753   9132 GROUP             0 ****  ****    0          
   754 RES754   9133 GROUP             0 ****  ****    0          
   755 RES755   9134 GROUP             0 ****  ****    0          
   756 RES756   9135 GROUP             0 ****  ****    0          
   757 RES757   9136 GROUP             0 ****  ****    0          
   758 RES758   9137 GROUP             0 ****  ****    0          
   759 RES759   9138 GROUP             0 ****  ****    0          
   760 RES760   9139 GROUP             0 ****  ****    0          
   761 RES761   9140 GROUP             0 ****  ****    0          
   762 RES762   9141 GROUP             0 ****  ****    0          
   763 RES763   9142 GROUP             0 ****  ****    0          
   764 RES764   9143 GROUP             0 ****  ****    0          
   765 RES765   9144 GROUP             0 ****  ****    0          
   766 RES766   9145 GROUP             0 ****  ****    0          
   767 RES767   9146 GROUP             0 ****  ****    0          
   768 RES768   9147 GROUP             0 ****  ****    0          
   769 RES769   9148 GROUP             0 ****  ****    0          
   770 RES770   9149 GROUP             0 ****  ****    0          
   771 RES771   9150 GROUP             0 ****  ****    0          
   772 RES772   9151 GROUP             0 ****  ****    0          
   773 RES773   9152 GROUP             0 ****  ****    0          
   774 RES774   9153 GROUP             0 ****  ****    0          
   775 RES775   9154 GROUP             0 ****  ****    0          
   776 RES776   9155 GROUP             0 ****  ****    0          
   777 RES777   9156 GROUP             0 ****  ****    0          
   778 RES778   9157 GROUP             0 ****  ****    0          
   779 RES779   9158 GROUP             0 ****  ****    0          
   780 RES780   9159 GROUP             0 ****  ****    0          
   781 RES781   9160 GROUP             0 ****  ****    0          
   782 RES782   9161 GROUP             0 ****  ****    0          
   783 RES783   9162 GROUP             0 ****  ****    0          
   784 RES784   9163 GROUP             0 ****  ****    0          
   785 RES785   9164 GROUP             0 ****  ****    0          
   786 RES786   9165 GROUP             0 ****  ****    0          
   787 RES787   9166 GROUP             0 ****  ****    0          
   788 RES788   9167 GROUP             0 ****  ****    0          
   789 RES789   9168 GROUP             0 ****  ****    0          
   790 RES790   9169 GROUP             0 ****  ****    0          
   791 RES791   9170 GROUP             0 ****  ****    0          
   792 RES792   9171 GROUP             0 ****  ****    0          
   793 RES793   9172 GROUP             0 ****  ****    0          
   794 RES794   9173 GROUP             0 ****  ****    0          
   795 RES795   9174 GROUP             0 ****  ****    0          
   796 RES796   9175 GROUP             0 ****  ****    0          
   797 RES797   9176 GROUP             0 ****  ****    0          
   798 RES798   9177 GROUP             0 ****  ****    0          
   799 RES799   9178 GROUP             0 ****  ****    0          
   800 RES800   9179 GROUP             0 ****  ****    0          
   801 RES801   9180 GROUP             0 ****  ****    0          
   802 RES802   9181 GROUP             0 ****  ****    0          
   803 RES803   9182 GROUP             0 ****  ****    0          
   804 RES804   9183 GROUP             0 ****  ****    0          
   805 RES805   9184 GROUP             0 ****  ****    0          
   806 RES806   9185 GROUP             0 ****  ****    0          
   807 RES807   9186 GROUP             0 ****  ****    0          
   808 RES808   9187 GROUP             0 ****  ****    0          
   809 RES809   9188 GROUP             0 ****  ****    0          
   810 RES810   9189 GROUP             0 ****  ****    0          
   811 RES811   9190 GROUP             0 ****  ****    0          
   812 RES812   9191 GROUP             0 ****  ****    0          
   813 RES813   9192 GROUP             0 ****  ****    0          
   814 RES814   9193 GROUP             0 ****  ****    0          
   815 RES815   9194 GROUP             0 ****  ****    0          
   816 RES816   9195 GROUP             0 ****  ****    0          
   817 RES817   9196 GROUP             0 ****  ****    0          
   818 RES818   9197 GROUP             0 ****  ****    0          
   819 RES819   9198 GROUP             0 ****  ****    0          
   820 RES820   9199 GROUP             0 ****  ****    0          
   821 RES821   9200 GROUP             0 ****  ****    0          
   822 RES822   9201 GROUP             0 ****  ****    0          
   823 RES823   9202 GROUP             0 ****  ****    0          
   824 RES824   9203 GROUP             0 ****  ****    0          
   825 RES825   9204 GROUP             0 ****  ****    0          
   826 RES826   9205 GROUP             0 ****  ****    0          
   827 RES827   9206 GROUP             0 ****  ****    0          
   828 RES828   9207 GROUP             0 ****  ****    0          
   829 RES829   9208 GROUP             0 ****  ****    0          
   830 RES830   9209 GROUP             0 ****  ****    0          
   831 RES831   9210 GROUP             0 ****  ****    0          
   832 RES832   9211 GROUP             0 ****  ****    0          
   833 RES833   9212 GROUP             0 ****  ****    0          
   834 RES834   9213 GROUP             0 ****  ****    0          
   835 RES835   9214 GROUP             0 ****  ****    0          
   836 RES836   9215 GROUP             0 ****  ****    0          
   837 RES837   9216 GROUP             0 ****  ****    0          
   838 RES838   9217 GROUP             0 ****  ****    0          
   839 RES839   9218 GROUP             0 ****  ****    0          
   840 RES840   9219 GROUP             0 ****  ****    0          
   841 RES841   9220 GROUP             0 ****  ****    0          
   842 RES842   9221 GROUP             0 ****  ****    0          
   843 RES843   9222 GROUP             0 ****  ****    0          
   844 RES844   9223 GROUP             0 ****  ****    0          
   845 RES845   9224 GROUP             0 ****  ****    0          
   846 RES846   9225 GROUP             0 ****  ****    0          
   847 RES847   9226 GROUP             0 ****  ****    0          
   848 RES848   9227 GROUP             0 ****  ****    0          
   849 RES849   9228 GROUP             0 ****  ****    0          
   850 RES850   9229 GROUP             0 ****  ****    0          
   851 RES851   9230 GROUP             0 ****  ****    0          
   852 RES852   9231 GROUP             0 ****  ****    0          
   853 RES853   9232 GROUP             0 ****  ****    0          
   854 RES854   9233 GROUP             0 ****  ****    0          
   855 RES855   9234 GROUP             0 ****  ****    0          
   856 RES856   9235 GROUP             0 ****  ****    0          
   857 RES857   9236 GROUP             0 ****  ****    0          
   858 RES858   9237 GROUP             0 ****  ****    0          
   859 RES859   9238 GROUP             0 ****  ****    0          
   860 RES860   9239 GROUP             0 ****  ****    0          
   861 RES861   9240 GROUP             0 ****  ****    0          
   862 RES862   9241 GROUP             0 ****  ****    0          
   863 RES863   9242 GROUP             0 ****  ****    0          
   864 RES864   9243 GROUP             0 ****  ****    0          
   865 RES865   9244 GROUP             0 ****  ****    0          
   866 RES866   9245 GROUP             0 ****  ****    0          
   867 RES867   9246 GROUP             0 ****  ****    0          
   868 RES868   9247 GROUP             0 ****  ****    0          
   869 RES869   9248 GROUP             0 ****  ****    0          
   870 RES870   9249 GROUP             0 ****  ****    0          
   871 RES871   9250 GROUP             0 ****  ****    0          
   872 RES872   9251 GROUP             0 ****  ****    0          
   873 RES873   9252 GROUP             0 ****  ****    0          
   874 RES874   9253 GROUP             0 ****  ****    0          
   875 RES875   9254 GROUP             0 ****  ****    0          
   876 RES876   9255 GROUP             0 ****  ****    0          
   877 RES877   9256 GROUP             0 ****  ****    0          
   878 RES878   9257 GROUP             0 ****  ****    0          
   879 RES879   9258 GROUP             0 ****  ****    0          
   880 RES880   9259 GROUP             0 ****  ****    0          
   881 RES881   9260 GROUP             0 ****  ****    0          
   882 RES882   9261 GROUP             0 ****  ****    0          
   883 RES883   9262 GROUP             0 ****  ****    0          
   884 RES884   9263 GROUP             0 ****  ****    0          
   885 RES885   9264 GROUP             0 ****  ****    0          
   886 RES886   9265 GROUP             0 ****  ****    0          
   887 RES887   9266 GROUP             0 ****  ****    0          
   888 RES888   9267 GROUP             0 ****  ****    0          
   889 RES889   9268 GROUP             0 ****  ****    0          
   890 RES890   9269 GROUP             0 ****  ****    0          
   891 RES891   9270 GROUP             0 ****  ****    0          
   892 RES892   9271 GROUP             0 ****  ****    0          
   893 RES893   9272 GROUP             0 ****  ****    0          
   894 RES894   9273 GROUP             0 ****  ****    0          
   895 RES895   9274 GROUP             0 ****  ****    0          
   896 RES896   9275 GROUP             0 ****  ****    0          
   897 RES897   9276 GROUP             0 ****  ****    0          
   898 RES898   9277 GROUP             0 ****  ****    0          
   899 RES899   9278 GROUP             0 ****  ****    0          
   900 RES900   9279 GROUP             0 ****  ****    0          
   901 RES901   9280 GROUP             0 ****  ****    0          
   902 RES902   9281 GROUP             0 ****  ****    0          
   903 RES903   9282 GROUP             0 ****  ****    0          
   904 RES904   9283 GROUP             0 ****  ****    0          
   905 RES905   9284 GROUP             0 ****  ****    0          
   906 RES906   9285 GROUP             0 ****  ****    0          
   907 RES907   9286 GROUP             0 ****  ****    0          
   908 RES908   9287 GROUP             0 ****  ****    0          
   909 RES909   9288 GROUP             0 ****  ****    0          
   910 RES910   9289 GROUP             0 ****  ****    0          
   911 RES911   9290 GROUP             0 ****  ****    0          
   912 RES912   9291 GROUP             0 ****  ****    0          
   913 RES913   9292 GROUP             0 ****  ****    0          
   914 RES914   9293 GROUP             0 ****  ****    0          
   915 RES915   9294 GROUP             0 ****  ****    0          
   916 RES916   9295 GROUP             0 ****  ****    0          
   917 RES917   9296 GROUP             0 ****  ****    0          
   918 RES918   9297 GROUP             0 ****  ****    0          
   919 RES919   9298 GROUP             0 ****  ****    0          
   920 RES920   9299 GROUP             0 ****  ****    0          
   921 RES921   9300 GROUP             0 ****  ****    0          
   922 RES922   9301 GROUP             0 ****  ****    0          
   923 RES923   9302 GROUP             0 ****  ****    0          
   924 RES924   9303 GROUP             0 ****  ****    0          
   925 RES925   9304 GROUP             0 ****  ****    0          
   926 RES926   9305 GROUP             0 ****  ****    0          
   927 RES927   9306 GROUP             0 ****  ****    0          
   928 RES928   9307 GROUP             0 ****  ****    0          
   929 RES929   9308 GROUP             0 ****  ****    0          
   930 RES930   9309 GROUP             0 ****  ****    0          
   931 RES931   9310 GROUP             0 ****  ****    0          
   932 RES932   9311 GROUP             0 ****  ****    0          
   933 RES933   9312 GROUP             0 ****  ****    0          
   934 RES934   9313 GROUP             0 ****  ****    0          
   935 RES935   9314 GROUP             0 ****  ****    0          
   936 RES936   9315 GROUP             0 ****  ****    0          
   937 RES937   9316 GROUP             0 ****  ****    0          
   938 RES938   9317 GROUP             0 ****  ****    0          
   939 RES939   9318 GROUP             0 ****  ****    0          
   940 RES940   9319 GROUP             0 ****  ****    0          
   941 RES941   9320 GROUP             0 ****  ****    0          
   942 RES942   9321 GROUP             0 ****  ****    0          
   943 RES943   9322 GROUP             0 ****  ****    0          
   944 RES944   9323 GROUP             0 ****  ****    0          
   945 RES945   9324 GROUP             0 ****  ****    0          
   946 RES946   9325 GROUP             0 ****  ****    0          
   947 RES947   9326 GROUP             0 ****  ****    0          
   948 RES948   9327 GROUP             0 ****  ****    0          
   949 RES949   9328 GROUP             0 ****  ****    0          
   950 RES950   9329 GROUP             0 ****  ****    0          
   951 RES951   9330 GROUP             0 ****  ****    0          
   952 RES952   9331 GROUP             0 ****  ****    0          
   953 RES953   9332 GROUP             0 ****  ****    0          
   954 RES954   9333 GROUP             0 ****  ****    0          
   955 RES955   9334 GROUP             0 ****  ****    0          
   956 RES956   9335 GROUP             0 ****  ****    0          
   957 RES957   9336 GROUP             0 ****  ****    0          
   958 RES958   9337 GROUP             0 ****  ****    0          
   959 RES959   9338 GROUP             0 ****  ****    0          
   960 RES960   9339 GROUP             0 ****  ****    0          
   961 RES961   9340 GROUP             0 ****  ****    0          
   962 RES962   9341 GROUP             0 ****  ****    0          
   963 RES963   9342 GROUP             0 ****  ****    0          
   964 RES964   9343 GROUP             0 ****  ****    0          
   965 RES965   9344 GROUP             0 ****  ****    0          
   966 RES966   9345 GROUP             0 ****  ****    0          
   967 RES967   9346 GROUP             0 ****  ****    0          
   968 RES968   9347 GROUP             0 ****  ****    0          
   969 RES969   9348 GROUP             0 ****  ****    0          
   970 RES970   9349 GROUP             0 ****  ****    0          
   971 RES971   9350 GROUP             0 ****  ****    0          
   972 RES972   9351 GROUP             0 ****  ****    0          
   973 RES973   9352 GROUP             0 ****  ****    0          
   974 RES974   9353 GROUP             0 ****  ****    0          
   975 RES975   9354 GROUP             0 ****  ****    0          
   976 RES976   9355 GROUP             0 ****  ****    0          
   977 RES977   9356 GROUP             0 ****  ****    0          
   978 RES978   9357 GROUP             0 ****  ****    0          
   979 RES979   9358 GROUP             0 ****  ****    0          
   980 RES980   9359 GROUP             0 ****  ****    0          
   981 RES981   9360 GROUP             0 ****  ****    0          
   982 RES982   9361 GROUP             0 ****  ****    0          
   983 RES983   9362 GROUP             0 ****  ****    0          
   984 RES984   9363 GROUP             0 ****  ****    0          
   985 RES985   9364 GROUP             0 ****  ****    0          
   986 RES986   9365 GROUP             0 ****  ****    0          
   987 RES987   9366 GROUP             0 ****  ****    0          
   988 RES988   9367 GROUP             0 ****  ****    0          
   989 RES989   9368 GROUP             0 ****  ****    0          
   990 RES990   9369 GROUP             0 ****  ****    0          
   991 RES991   9370 GROUP             0 ****  ****    0          
   992 RES992   9371 GROUP             0 ****  ****    0          
   993 RES993   9372 GROUP             0 ****  ****    0          
   994 RES994   9373 GROUP             0 ****  ****    0          
   995 RES995   9374 GROUP             0 ****  ****    0          
   996 RES996   9375 GROUP             0 ****  ****    0          
   997 RES997   9376 GROUP             0 ****  ****    0          
   998 RES998   9377 GROUP             0 ****  ****    0          
   999 RES999   9378 GROUP             0 ****  ****    0          
  1000 RES1000   9379 GROUP             0 ****  ****    0          
  1001 RES1001   9380 GROUP             0 ****  ****    0          
  1002 RES1002   9381 GROUP             0 ****  ****    0          
  1003 RES1003   9382 GROUP             0 ****  ****    0          
  1004 RES1004   9383 GROUP             0 ****  ****    0          
  1005 RES1005   9384 GROUP             0 ****  ****    0          
  1006 RES1006   9385 GROUP             0 ****  ****    0          
  1007 RES1007   9386 GROUP             0 ****  ****    0          
  1008 RES1008   9387 GROUP             0 ****  ****    0          
  1009 RES1009   9388 GROUP             0 ****  ****    0          
  1010 RES1010   9389 GROUP             0 ****  ****    0          
  1011 RES1011   9390 GROUP             0 ****  ****    0          
  1012 RES1012   9391 GROUP             0 ****  ****    0          
  1013 RES1013   9392 GROUP             0 ****  ****    0          
  1014 RES1014   9393 GROUP             0 ****  ****    0          
  1015 RES1015   9394 GROUP             0 ****  ****    0          
  1016 RES1016   9395 GROUP             0 ****  ****    0          
  1017 RES1017   9396 GROUP             0 ****  ****    0          
  1018 RES1018   9397 GROUP             0 ****  ****    0          
  1019 RES1019   9398 GROUP             0 ****  ****    0          
  1020 RES1020   9399 GROUP             0 ****  ****    0          
  1021 RES1021   9400 GROUP             0 ****  ****    0          
  1022 RES1022   9401 GROUP             0 ****  ****    0          
  1023 RES1023   9402 GROUP             0 ****  ****    0          
  1024 RES1024   9403 GROUP             0 ****  ****    0          
  1025 RES1025   9404 GROUP             0 ****  ****    0          
  1026 RES1026   9405 GROUP             0 ****  ****    0          
  1027 RES1027   9406 GROUP             0 ****  ****    0          
  1028 RES1028   9407 GROUP             0 ****  ****    0          
  1029 RES1029   9408 GROUP             0 ****  ****    0          
  1030 RES1030   9409 GROUP             0 ****  ****    0          
  1031 RES1031   9410 GROUP             0 ****  ****    0          
  1032 RES1032   9411 GROUP             0 ****  ****    0          
  1033 RES1033   9412 GROUP             0 ****  ****    0          
  1034 RES1034   9413 GROUP             0 ****  ****    0          
  1035 RES1035   9414 GROUP             0 ****  ****    0          
  1036 RES1036   9415 GROUP             0 ****  ****    0          
  1037 RES1037   9416 GROUP             0 ****  ****    0          
  1038 RES1038   9417 GROUP             0 ****  ****    0          
  1039 RES1039   9418 GROUP             0 ****  ****    0          
  1040 RES1040   9419 GROUP             0 ****  ****    0          
  1041 RES1041   9420 GROUP             0 ****  ****    0          
  1042 RES1042   9421 GROUP             0 ****  ****    0          
  1043 RES1043   9422 GROUP             0 ****  ****    0          
  1044 RES1044   9423 GROUP             0 ****  ****    0          
  1045 RES1045   9424 GROUP             0 ****  ****    0          
  1046 RES1046   9425 GROUP             0 ****  ****    0          
  1047 RES1047   9426 GROUP             0 ****  ****    0          
  1048 RES1048   9427 GROUP             0 ****  ****    0          
  1049 RES1049   9428 GROUP             0 ****  ****    0          
  1050 RES1050   9429 GROUP             0 ****  ****    0          
  1051 RES1051   9430 GROUP             0 ****  ****    0          
  1052 RES1052   9431 GROUP             0 ****  ****    0          
  1053 RES1053   9432 GROUP             0 ****  ****    0          
  1054 RES1054   9433 GROUP             0 ****  ****    0          
  1055 RES1055   9434 GROUP             0 ****  ****    0          
  1056 RES1056   9435 GROUP             0 ****  ****    0          
  1057 RES1057   9436 GROUP             0 ****  ****    0          
  1058 RES1058   9437 GROUP             0 ****  ****    0          
  1059 RES1059   9438 GROUP             0 ****  ****    0          
  1060 RES1060   9439 GROUP             0 ****  ****    0          
  1061 RES1061   9440 GROUP             0 ****  ****    0          
  1062 RES1062   9441 GROUP             0 ****  ****    0          
  1063 RES1063   9442 GROUP             0 ****  ****    0          
  1064 RES1064   9443 GROUP             0 ****  ****    0          
  1065 RES1065   9444 GROUP             0 ****  ****    0          
  1066 RES1066   9445 GROUP             0 ****  ****    0          
  1067 RES1067   9446 GROUP             0 ****  ****    0          
  1068 RES1068   9447 GROUP             0 ****  ****    0          
  1069 RES1069   9448 GROUP             0 ****  ****    0          
  1070 RES1070   9449 GROUP             0 ****  ****    0          
  1071 RES1071   9450 GROUP             0 ****  ****    0          
  1072 RES1072   9451 GROUP             0 ****  ****    0          
  1073 RES1073   9452 GROUP             0 ****  ****    0          
  1074 RES1074   9453 GROUP             0 ****  ****    0          
  1075 RES1075   9454 GROUP             0 ****  ****    0          
  1076 RES1076   9455 GROUP             0 ****  ****    0          
  1077 RES1077   9456 GROUP             0 ****  ****    0          
  1078 RES1078   9457 GROUP             0 ****  ****    0          
  1079 RES1079   9458 GROUP             0 ****  ****    0          
  1080 RES1080   9459 GROUP             0 ****  ****    0          
  1081 RES1081   9460 GROUP             0 ****  ****    0          
  1082 RES1082   9461 GROUP             0 ****  ****    0          
  1083 RES1083   9462 GROUP             0 ****  ****    0          
  1084 RES1084   9463 GROUP             0 ****  ****    0          
  1085 RES1085   9464 GROUP             0 ****  ****    0          
  1086 RES1086   9465 GROUP             0 ****  ****    0          
  1087 RES1087   9466 GROUP             0 ****  ****    0          
  1088 RES1088   9467 GROUP             0 ****  ****    0          
  1089 RES1089   9468 GROUP             0 ****  ****    0          
  1090 RES1090   9469 GROUP             0 ****  ****    0          
  1091 RES1091   9470 GROUP             0 ****  ****    0          
  1092 RES1092   9471 GROUP             0 ****  ****    0          
  1093 RES1093   9472 GROUP             0 ****  ****    0          
  1094 RES1094   9473 GROUP             0 ****  ****    0          
  1095 RES1095   9474 GROUP             0 ****  ****    0          
  1096 RES1096   9475 GROUP             0 ****  ****    0          
  1097 RES1097   9476 GROUP             0 ****  ****    0          
  1098 RES1098   9477 GROUP             0 ****  ****    0          
  1099 RES1099   9478 GROUP             0 ****  ****    0          
  1100 RES1100   9479 GROUP             0 ****  ****    0          
  1101 RES1101   9480 GROUP             0 ****  ****    0          
  1102 RES1102   9481 GROUP             0 ****  ****    0          
  1103 RES1103   9482 GROUP             0 ****  ****    0          
  1104 RES1104   9483 GROUP             0 ****  ****    0          
  1105 RES1105   9484 GROUP             0 ****  ****    0          
  1106 RES1106   9485 GROUP             0 ****  ****    0          
  1107 RES1107   9486 GROUP             0 ****  ****    0          
  1108 RES1108   9487 GROUP             0 ****  ****    0          
  1109 RES1109   9488 GROUP             0 ****  ****    0          
  1110 RES1110   9489 GROUP             0 ****  ****    0          
  1111 RES1111   9490 GROUP             0 ****  ****    0          
  1112 RES1112   9491 GROUP             0 ****  ****    0          
  1113 RES1113   9492 GROUP             0 ****  ****    0          
  1114 RES1114   9493 GROUP             0 ****  ****    0          
  1115 RES1115   9494 GROUP             0 ****  ****    0          
  1116 RES1116   9495 GROUP             0 ****  ****    0          
  1117 RES1117   9496 GROUP             0 ****  ****    0          
  1118 RES1118   9497 GROUP             0 ****  ****    0          
  1119 RES1119   9498 GROUP             0 ****  ****    0          
  1120 RES1120   9499 GROUP             0 ****  ****    0          
  1121 RES1121   9500 GROUP             0 ****  ****    0          
  1122 RES1122   9501 GROUP             0 ****  ****    0          
  1123 RES1123   9502 GROUP             0 ****  ****    0          
  1124 RES1124   9503 GROUP             0 ****  ****    0          
  1125 RES1125   9504 GROUP             0 ****  ****    0          
  1126 RES1126   9505 GROUP             0 ****  ****    0          
  1127 RES1127   9506 GROUP             0 ****  ****    0          
  1128 RES1128   9507 GROUP             0 ****  ****    0          
  1129 RES1129   9508 GROUP             0 ****  ****    0          
  1130 RES1130   9509 GROUP             0 ****  ****    0          
  1131 RES1131   9510 GROUP             0 ****  ****    0          
  1132 RES1132   9511 GROUP             0 ****  ****    0          
  1133 RES1133   9512 GROUP             0 ****  ****    0          
  1134 RES1134   9513 GROUP             0 ****  ****    0          
  1135 RES1135   9514 GROUP             0 ****  ****    0          
  1136 RES1136   9515 GROUP             0 ****  ****    0          
  1137 RES1137   9516 GROUP             0 ****  ****    0          
  1138 RES1138   9517 GROUP             0 ****  ****    0          
  1139 RES1139   9518 GROUP             0 ****  ****    0          
  1140 RES1140   9519 GROUP             0 ****  ****    0          
  1141 RES1141   9520 GROUP             0 ****  ****    0          
  1142 RES1142   9521 GROUP             0 ****  ****    0          
  1143 RES1143   9522 GROUP             0 ****  ****    0          
  1144 RES1144   9523 GROUP             0 ****  ****    0          
  1145 RES1145   9524 GROUP             0 ****  ****    0          
  1146 RES1146   9525 GROUP             0 ****  ****    0          
  1147 RES1147   9526 GROUP             0 ****  ****    0          
  1148 RES1148   9527 GROUP             0 ****  ****    0          
  1149 RES1149   9528 GROUP             0 ****  ****    0          
  1150 RES1150   9529 GROUP             0 ****  ****    0          
  1151 RES1151   9530 GROUP             0 ****  ****    0          
  1152 RES1152   9531 GROUP             0 ****  ****    0          
  1153 RES1153   9532 GROUP             0 ****  ****    0          
  1154 RES1154   9533 GROUP             0 ****  ****    0          
  1155 RES1155   9534 GROUP             0 ****  ****    0          
  1156 RES1156   9535 GROUP             0 ****  ****    0          
  1157 RES1157   9536 GROUP             0 ****  ****    0          
  1158 RES1158   9537 GROUP             0 ****  ****    0          
  1159 RES1159   9538 GROUP             0 ****  ****    0          
  1160 RES1160   9539 GROUP             0 ****  ****    0          
  1161 RES1161   9540 GROUP             0 ****  ****    0          
  1162 RES1162   9541 GROUP             0 ****  ****    0          
  1163 RES1163   9542 GROUP             0 ****  ****    0          
  1164 RES1164   9543 GROUP             0 ****  ****    0          
  1165 RES1165   9544 GROUP             0 ****  ****    0          
  1166 RES1166   9545 GROUP             0 ****  ****    0          
  1167 RES1167   9546 GROUP             0 ****  ****    0          
  1168 RES1168   9547 GROUP             0 ****  ****    0          
  1169 RES1169   9548 GROUP             0 ****  ****    0          
  1170 RES1170   9549 GROUP             0 ****  ****    0          
  1171 RES1171   9550 GROUP             0 ****  ****    0          
  1172 RES1172   9551 GROUP             0 ****  ****    0          
  1173 RES1173   9552 GROUP             0 ****  ****    0          
  1174 RES1174   9553 GROUP             0 ****  ****    0          
  1175 RES1175   9554 GROUP             0 ****  ****    0          
  1176 RES1176   9555 GROUP             0 ****  ****    0          
  1177 RES1177   9556 GROUP             0 ****  ****    0          
  1178 RES1178   9557 GROUP             0 ****  ****    0          
  1179 RES1179   9558 GROUP             0 ****  ****    0          
  1180 RES1180   9559 GROUP             0 ****  ****    0          
  1181 RES1181   9560 GROUP             0 ****  ****    0          
  1182 RES1182   9561 GROUP             0 ****  ****    0          
  1183 RES1183   9562 GROUP             0 ****  ****    0          
  1184 RES1184   9563 GROUP             0 ****  ****    0          
  1185 RES1185   9564 GROUP             0 ****  ****    0          
  1186 RES1186   9565 GROUP             0 ****  ****    0          
  1187 RES1187   9566 GROUP             0 ****  ****    0          
  1188 RES1188   9567 GROUP             0 ****  ****    0          
  1189 RES1189   9568 GROUP             0 ****  ****    0          
  1190 RES1190   9569 GROUP             0 ****  ****    0          
  1191 RES1191   9570 GROUP             0 ****  ****    0          
  1192 RES1192   9571 GROUP             0 ****  ****    0          
  1193 RES1193   9572 GROUP             0 ****  ****    0          
  1194 RES1194   9573 GROUP             0 ****  ****    0          
  1195 RES1195   9574 GROUP             0 ****  ****    0          
  1196 RES1196   9575 GROUP             0 ****  ****    0          
  1197 RES1197   9576 GROUP             0 ****  ****    0          
  1198 RES1198   9577 GROUP             0 ****  ****    0          
  1199 RES1199   9578 GROUP             0 ****  ****    0          
  1200 RES1200   9579 GROUP             0 ****  ****    0          
  1201 RES1201   9580 GROUP             0 ****  ****    0          
  1202 RES1202   9581 GROUP             0 ****  ****    0          
  1203 RES1203   9582 GROUP             0 ****  ****    0          
  1204 RES1204   9583 GROUP             0 ****  ****    0          
  1205 RES1205   9584 GROUP             0 ****  ****    0          
  1206 RES1206   9585 GROUP             0 ****  ****    0          
  1207 RES1207   9586 GROUP             0 ****  ****    0          
  1208 RES1208   9587 GROUP             0 ****  ****    0          
  1209 RES1209   9588 GROUP             0 ****  ****    0          
  1210 RES1210   9589 GROUP             0 ****  ****    0          
  1211 RES1211   9590 GROUP             0 ****  ****    0          
  1212 RES1212   9591 GROUP             0 ****  ****    0          
  1213 RES1213   9592 GROUP             0 ****  ****    0          
  1214 RES1214   9593 GROUP             0 ****  ****    0          
  1215 RES1215   9594 GROUP             0 ****  ****    0          
  1216 RES1216   9595 GROUP             0 ****  ****    0          
  1217 RES1217   9596 GROUP             0 ****  ****    0          
  1218 RES1218   9597 GROUP             0 ****  ****    0          
  1219 RES1219   9598 GROUP             0 ****  ****    0          
  1220 RES1220   9599 GROUP             0 ****  ****    0          
  1221 RES1221   9600 GROUP             0 ****  ****    0          
  1222 RES1222   9601 GROUP             0 ****  ****    0          
  1223 RES1223   9602 GROUP             0 ****  ****    0          
  1224 RES1224   9603 GROUP             0 ****  ****    0          
  1225 RES1225   9604 GROUP             0 ****  ****    0          
  1226 RES1226   9605 GROUP             0 ****  ****    0          
  1227 RES1227   9606 GROUP             0 ****  ****    0          
  1228 RES1228   9607 GROUP             0 ****  ****    0          
  1229 RES1229   9608 GROUP             0 ****  ****    0          
  1230 RES1230   9609 GROUP             0 ****  ****    0          
  1231 RES1231   9610 GROUP             0 ****  ****    0          
  1232 RES1232   9611 GROUP             0 ****  ****    0          
  1233 RES1233   9612 GROUP             0 ****  ****    0          
  1234 RES1234   9613 GROUP             0 ****  ****    0          
  1235 RES1235   9614 GROUP             0 ****  ****    0          
  1236 RES1236   9615 GROUP             0 ****  ****    0          
  1237 RES1237   9616 GROUP             0 ****  ****    0          
  1238 RES1238   9617 GROUP             0 ****  ****    0          
  1239 RES1239   9618 GROUP             0 ****  ****    0          
  1240 RES1240   9619 GROUP             0 ****  ****    0          
  1241 RES1241   9620 GROUP             0 ****  ****    0          
  1242 RES1242   9621 GROUP             0 ****  ****    0          
  1243 RES1243   9622 GROUP             0 ****  ****    0          
  1244 RES1244   9623 GROUP             0 ****  ****    0          
  1245 RES1245   9624 GROUP             0 ****  ****    0          
  1246 RES1246   9625 GROUP             0 ****  ****    0          
  1247 RES1247   9626 GROUP             0 ****  ****    0          
  1248 RES1248   9627 GROUP             0 ****  ****    0          
  1249 RES1249   9628 GROUP             0 ****  ****    0          
  1250 RES1250   9629 GROUP             0 ****  ****    0          
  1251 RES1251   9630 GROUP             0 ****  ****    0          
  1252 RES1252   9631 GROUP             0 ****  ****    0          
  1253 RES1253   9632 GROUP             0 ****  ****    0          
  1254 RES1254   9633 GROUP             0 ****  ****    0          
  1255 RES1255   9634 GROUP             0 ****  ****    0          
  1256 RES1256   9635 GROUP             0 ****  ****    0          
  1257 RES1257   9636 GROUP             0 ****  ****    0          
  1258 RES1258   9637 GROUP             0 ****  ****    0          
  1259 RES1259   9638 GROUP             0 ****  ****    0          
  1260 RES1260   9639 GROUP             0 ****  ****    0          
  1261 RES1261   9640 GROUP             0 ****  ****    0          
  1262 RES1262   9641 GROUP             0 ****  ****    0          
  1263 RES1263   9642 GROUP             0 ****  ****    0          
  1264 RES1264   9643 GROUP             0 ****  ****    0          
  1265 RES1265   9644 GROUP             0 ****  ****    0          
  1266 RES1266   9645 GROUP             0 ****  ****    0          
  1267 RES1267   9646 GROUP             0 ****  ****    0          
  1268 RES1268   9647 GROUP             0 ****  ****    0          
  1269 RES1269   9648 GROUP             0 ****  ****    0          
  1270 RES1270   9649 GROUP             0 ****  ****    0          
  1271 RES1271   9650 GROUP             0 ****  ****    0          
  1272 RES1272   9651 GROUP             0 ****  ****    0          
  1273 RES1273   9652 GROUP             0 ****  ****    0          
  1274 RES1274   9653 GROUP             0 ****  ****    0          
  1275 RES1275   9654 GROUP             0 ****  ****    0          
  1276 RES1276   9655 GROUP             0 ****  ****    0          
  1277 RES1277   9656 GROUP             0 ****  ****    0          
  1278 RES1278   9657 GROUP             0 ****  ****    0          
  1279 RES1279   9658 GROUP             0 ****  ****    0          
  1280 RES1280   9659 GROUP             0 ****  ****    0          
  1281 RES1281   9660 GROUP             0 ****  ****    0          
  1282 RES1282   9661 GROUP             0 ****  ****    0          
  1283 RES1283   9662 GROUP             0 ****  ****    0          
  1284 RES1284   9663 GROUP             0 ****  ****    0          
  1285 RES1285   9664 GROUP             0 ****  ****    0          
  1286 RES1286   9665 GROUP             0 ****  ****    0          
  1287 RES1287   9666 GROUP             0 ****  ****    0          
  1288 RES1288   9667 GROUP             0 ****  ****    0          
  1289 RES1289   9668 GROUP             0 ****  ****    0          
  1290 RES1290   9669 GROUP             0 ****  ****    0          
  1291 RES1291   9670 GROUP             0 ****  ****    0          
  1292 RES1292   9671 GROUP             0 ****  ****    0          
  1293 RES1293   9672 GROUP             0 ****  ****    0          
  1294 RES1294   9673 GROUP             0 ****  ****    0          
  1295 RES1295   9674 GROUP             0 ****  ****    0          
  1296 RES1296   9675 GROUP             0 ****  ****    0          
  1297 RES1297   9676 GROUP             0 ****  ****    0          
  1298 RES1298   9677 GROUP             0 ****  ****    0          
  1299 RES1299   9678 GROUP             0 ****  ****    0          
  1300 RES1300   9679 GROUP             0 ****  ****    0          
  1301 RES1301   9680 GROUP             0 ****  ****    0          
  1302 RES1302   9681 GROUP             0 ****  ****    0          
  1303 RES1303   9682 GROUP             0 ****  ****    0          
  1304 RES1304   9683 GROUP             0 ****  ****    0          
  1305 RES1305   9684 GROUP             0 ****  ****    0          
  1306 RES1306   9685 GROUP             0 ****  ****    0          
  1307 RES1307   9686 GROUP             0 ****  ****    0          
  1308 RES1308   9687 GROUP             0 ****  ****    0          
  1309 RES1309   9688 GROUP             0 ****  ****    0          
  1310 RES1310   9689 GROUP             0 ****  ****    0          
  1311 RES1311   9690 GROUP             0 ****  ****    0          
  1312 RES1312   9691 GROUP             0 ****  ****    0          
  1313 RES1313   9692 GROUP             0 ****  ****    0          
  1314 RES1314   9693 GROUP             0 ****  ****    0          
  1315 RES1315   9694 GROUP             0 ****  ****    0          
  1316 RES1316   9695 GROUP             0 ****  ****    0          
  1317 RES1317   9696 GROUP             0 ****  ****    0          
  1318 RES1318   9697 GROUP             0 ****  ****    0          
  1319 RES1319   9698 GROUP             0 ****  ****    0          
  1320 RES1320   9699 GROUP             0 ****  ****    0          
  1321 RES1321   9700 GROUP             0 ****  ****    0          
  1322 RES1322   9701 GROUP             0 ****  ****    0          
  1323 RES1323   9702 GROUP             0 ****  ****    0          
  1324 RES1324   9703 GROUP             0 ****  ****    0          
  1325 RES1325   9704 GROUP             0 ****  ****    0          
  1326 RES1326   9705 GROUP             0 ****  ****    0          
  1327 RES1327   9706 GROUP             0 ****  ****    0          
  1328 RES1328   9707 GROUP             0 ****  ****    0          
  1329 RES1329   9708 GROUP             0 ****  ****    0          
  1330 RES1330   9709 GROUP             0 ****  ****    0          
  1331 RES1331   9710 GROUP             0 ****  ****    0          
  1332 RES1332   9711 GROUP             0 ****  ****    0          
  1333 RES1333   9712 GROUP             0 ****  ****    0          
  1334 RES1334   9713 GROUP             0 ****  ****    0          
  1335 RES1335   9714 GROUP             0 ****  ****    0          
  1336 RES1336   9715 GROUP             0 ****  ****    0          
  1337 RES1337   9716 GROUP             0 ****  ****    0          
  1338 RES1338   9717 GROUP             0 ****  ****    0          
  1339 RES1339   9718 GROUP             0 ****  ****    0          
  1340 RES1340   9719 GROUP             0 ****  ****    0          
  1341 RES1341   9720 GROUP             0 ****  ****    0          
  1342 RES1342   9721 GROUP             0 ****  ****    0          
  1343 RES1343   9722 GROUP             0 ****  ****    0          
  1344 RES1344   9723 GROUP             0 ****  ****    0          
  1345 RES1345   9724 GROUP             0 ****  ****    0          
  1346 RES1346   9725 GROUP             0 ****  ****    0          
  1347 RES1347   9726 GROUP             0 ****  ****    0          
  1348 RES1348   9727 GROUP             0 ****  ****    0          
  1349 RES1349   9728 GROUP             0 ****  ****    0          
  1350 RES1350   9729 GROUP             0 ****  ****    0          
  1351 RES1351   9730 GROUP             0 ****  ****    0          
  1352 RES1352   9731 GROUP             0 ****  ****    0          
  1353 RES1353   9732 GROUP             0 ****  ****    0          
  1354 RES1354   9733 GROUP             0 ****  ****    0          
  1355 RES1355   9734 GROUP             0 ****  ****    0          
  1356 RES1356   9735 GROUP             0 ****  ****    0          
  1357 RES1357   9736 GROUP             0 ****  ****    0          
  1358 RES1358   9737 GROUP             0 ****  ****    0          
  1359 RES1359   9738 GROUP             0 ****  ****    0          
  1360 RES1360   9739 GROUP             0 ****  ****    0          
  1361 RES1361   9740 GROUP             0 ****  ****    0          
  1362 RES1362   9741 GROUP             0 ****  ****    0          
  1363 RES1363   9742 GROUP             0 ****  ****    0          
  1364 RES1364   9743 GROUP             0 ****  ****    0          
  1365 RES1365   9744 GROUP             0 ****  ****    0          
  1366 RES1366   9745 GROUP             0 ****  ****    0          
  1367 RES1367   9746 GROUP             0 ****  ****    0          
  1368 RES1368   9747 GROUP             0 ****  ****    0          
  1369 RES1369   9748 GROUP             0 ****  ****    0          
  1370 RES1370   9749 GROUP             0 ****  ****    0          
  1371 RES1371   9750 GROUP             0 ****  ****    0          
  1372 RES1372   9751 GROUP             0 ****  ****    0          
  1373 RES1373   9752 GROUP             0 ****  ****    0          
  1374 RES1374   9753 GROUP             0 ****  ****    0          
  1375 RES1375   9754 GROUP             0 ****  ****    0          
  1376 RES1376   9755 GROUP             0 ****  ****    0          
  1377 RES1377   9756 GROUP             0 ****  ****    0          
  1378 RES1378   9757 GROUP             0 ****  ****    0          
  1379 RES1379   9758 GROUP             0 ****  ****    0          
  1380 RES1380   9759 GROUP             0 ****  ****    0          
  1381 RES1381   9760 GROUP             0 ****  ****    0          
  1382 RES1382   9761 GROUP             0 ****  ****    0          
  1383 RES1383   9762 GROUP             0 ****  ****    0          
  1384 RES1384   9763 GROUP             0 ****  ****    0          
  1385 RES1385   9764 GROUP             0 ****  ****    0          
  1386 RES1386   9765 GROUP             0 ****  ****    0          
  1387 RES1387   9766 GROUP             0 ****  ****    0          
  1388 RES1388   9767 GROUP             0 ****  ****    0          
  1389 RES1389   9768 GROUP             0 ****  ****    0          
  1390 RES1390   9769 GROUP             0 ****  ****    0          
  1391 RES1391   9770 GROUP             0 ****  ****    0          
  1392 RES1392   9771 GROUP             0 ****  ****    0          
  1393 RES1393   9772 GROUP             0 ****  ****    0          
  1394 RES1394   9773 GROUP             0 ****  ****    0          
  1395 RES1395   9774 GROUP             0 ****  ****    0          
  1396 RES1396   9775 GROUP             0 ****  ****    0          
  1397 RES1397   9776 GROUP             0 ****  ****    0          
  1398 RES1398   9777 GROUP             0 ****  ****    0          
  1399 RES1399   9778 GROUP             0 ****  ****    0          
  1400 RES1400   9779 GROUP             0 ****  ****    0          
  1401 RES1401   9780 GROUP             0 ****  ****    0          
  1402 RES1402   9781 GROUP             0 ****  ****    0          
  1403 RES1403   9782 GROUP             0 ****  ****    0          
  1404 RES1404   9783 GROUP             0 ****  ****    0          
  1405 RES1405   9784 GROUP             0 ****  ****    0          
  1406 RES1406   9785 GROUP             0 ****  ****    0          
  1407 RES1407   9786 GROUP             0 ****  ****    0          
  1408 RES1408   9787 GROUP             0 ****  ****    0          
  1409 RES1409   9788 GROUP             0 ****  ****    0          
  1410 RES1410   9789 GROUP             0 ****  ****    0          
  1411 RES1411   9790 GROUP             0 ****  ****    0          
  1412 RES1412   9791 GROUP             0 ****  ****    0          
  1413 RES1413   9792 GROUP             0 ****  ****    0          
  1414 RES1414   9793 GROUP             0 ****  ****    0          
  1415 RES1415   9794 GROUP             0 ****  ****    0          
  1416 RES1416   9795 GROUP             0 ****  ****    0          
  1417 RES1417   9796 GROUP             0 ****  ****    0          
  1418 RES1418   9797 GROUP             0 ****  ****    0          
  1419 RES1419   9798 GROUP             0 ****  ****    0          
  1420 RES1420   9799 GROUP             0 ****  ****    0          
  1421 RES1421   9800 GROUP             0 ****  ****    0          
  1422 RES1422   9801 GROUP             0 ****  ****    0          
  1423 RES1423   9802 GROUP             0 ****  ****    0          
  1424 RES1424   9803 GROUP             0 ****  ****    0          
  1425 RES1425   9804 GROUP             0 ****  ****    0          
  1426 RES1426   9805 GROUP             0 ****  ****    0          
  1427 RES1427   9806 GROUP             0 ****  ****    0          
  1428 RES1428   9807 GROUP             0 ****  ****    0          
  1429 RES1429   9808 GROUP             0 ****  ****    0          
  1430 RES1430   9809 GROUP             0 ****  ****    0          
  1431 RES1431   9810 GROUP             0 ****  ****    0          
  1432 RES1432   9811 GROUP             0 ****  ****    0          
  1433 RES1433   9812 GROUP             0 ****  ****    0          
  1434 RES1434   9813 GROUP             0 ****  ****    0          
  1435 RES1435   9814 GROUP             0 ****  ****    0          
  1436 RES1436   9815 GROUP             0 ****  ****    0          
  1437 RES1437   9816 GROUP             0 ****  ****    0          
  1438 RES1438   9817 GROUP             0 ****  ****    0          
  1439 RES1439   9818 GROUP             0 ****  ****    0          
  1440 RES1440   9819 GROUP             0 ****  ****    0          
  1441 RES1441   9820 GROUP             0 ****  ****    0          
  1442 RES1442   9821 GROUP             0 ****  ****    0          
  1443 RES1443   9822 GROUP             0 ****  ****    0          
  1444 RES1444   9823 GROUP             0 ****  ****    0          
  1445 RES1445   9824 GROUP             0 ****  ****    0          
  1446 RES1446   9825 GROUP             0 ****  ****    0          
  1447 RES1447   9826 GROUP             0 ****  ****    0          
  1448 RES1448   9827 GROUP             0 ****  ****    0          
  1449 RES1449   9828 GROUP             0 ****  ****    0          
  1450 RES1450   9829 GROUP             0 ****  ****    0          
  1451 RES1451   9830 GROUP             0 ****  ****    0          
  1452 RES1452   9831 GROUP             0 ****  ****    0          
  1453 RES1453   9832 GROUP             0 ****  ****    0          
  1454 RES1454   9833 GROUP             0 ****  ****    0          
  1455 RES1455   9834 GROUP             0 ****  ****    0          
  1456 RES1456   9835 GROUP             0 ****  ****    0          
  1457 RES1457   9836 GROUP             0 ****  ****    0          
  1458 RES1458   9837 GROUP             0 ****  ****    0          
  1459 RES1459   9838 GROUP             0 ****  ****    0          
  1460 RES1460   9839 GROUP             0 ****  ****    0          
  1461 RES1461   9840 GROUP             0 ****  ****    0          
  1462 RES1462   9841 GROUP             0 ****  ****    0          
  1463 RES1463   9842 GROUP             0 ****  ****    0          
  1464 RES1464   9843 GROUP             0 ****  ****    0          
  1465 RES1465   9844 GROUP             0 ****  ****    0          
  1466 RES1466   9845 GROUP             0 ****  ****    0          
  1467 RES1467   9846 GROUP             0 ****  ****    0          
  1468 RES1468   9847 GROUP             0 ****  ****    0          
  1469 RES1469   9848 GROUP             0 ****  ****    0          
  1470 RES1470   9849 GROUP             0 ****  ****    0          
  1471 RES1471   9850 GROUP             0 ****  ****    0          
  1472 RES1472   9851 GROUP             0 ****  ****    0          
  1473 RES1473   9852 GROUP             0 ****  ****    0          
  1474 RES1474   9853 GROUP             0 ****  ****    0          
  1475 RES1475   9854 GROUP             0 ****  ****    0          
  1476 RES1476   9855 GROUP             0 ****  ****    0          
  1477 RES1477   9856 GROUP             0 ****  ****    0          
  1478 RES1478   9857 GROUP             0 ****  ****    0          
  1479 RES1479   9858 GROUP             0 ****  ****    0          
  1480 RES1480   9859 GROUP             0 ****  ****    0          
  1481 RES1481   9860 GROUP             0 ****  ****    0          
  1482 RES1482   9861 GROUP             0 ****  ****    0          
  1483 RES1483   9862 GROUP             0 ****  ****    0          
  1484 RES1484   9863 GROUP             0 ****  ****    0          
  1485 RES1485   9864 GROUP             0 ****  ****    0          
  1486 RES1486   9865 GROUP             0 ****  ****    0          
  1487 RES1487   9866 GROUP             0 ****  ****    0          
  1488 RES1488   9867 GROUP             0 ****  ****    0          
  1489 RES1489   9868 GROUP             0 ****  ****    0          
  1490 RES1490   9869 GROUP             0 ****  ****    0          
  1491 RES1491   9870 GROUP             0 ****  ****    0          
  1492 RES1492   9871 GROUP             0 ****  ****    0          
  1493 RES1493   9872 GROUP             0 ****  ****    0          
  1494 RES1494   9873 GROUP             0 ****  ****    0          
  1495 RES1495   9874 GROUP             0 ****  ****    0          
  1496 RES1496   9875 GROUP             0 ****  ****    0          
  1497 RES1497   9876 GROUP             0 ****  ****    0          
  1498 RES1498   9877 GROUP             0 ****  ****    0          
  1499 RES1499   9878 GROUP             0 ****  ****    0          
  1500 RES1500   9879 GROUP             0 ****  ****    0          
  1501 RES1501   9880 GROUP             0 ****  ****    0          
  1502 RES1502   9881 GROUP             0 ****  ****    0          
  1503 RES1503   9882 GROUP             0 ****  ****    0          
  1504 RES1504   9883 GROUP             0 ****  ****    0          
  1505 RES1505   9884 GROUP             0 ****  ****    0          
  1506 RES1506   9885 GROUP             0 ****  ****    0          
  1507 RES1507   9886 GROUP             0 ****  ****    0          
  1508 RES1508   9887 GROUP             0 ****  ****    0          
  1509 RES1509   9888 GROUP             0 ****  ****    0          
  1510 RES1510   9889 GROUP             0 ****  ****    0          
  1511 RES1511   9890 GROUP             0 ****  ****    0          
  1512 RES1512   9891 GROUP             0 ****  ****    0          
  1513 RES1513   9892 GROUP             0 ****  ****    0          
  1514 RES1514   9893 GROUP             0 ****  ****    0          
  1515 RES1515   9894 GROUP             0 ****  ****    0          
  1516 RES1516   9895 GROUP             0 ****  ****    0          
  1517 RES1517   9896 GROUP             0 ****  ****    0          
  1518 RES1518   9897 GROUP             0 ****  ****    0          
  1519 RES1519   9898 GROUP             0 ****  ****    0          
  1520 RES1520   9899 GROUP             0 ****  ****    0          
  1521 RES1521   9900 GROUP             0 ****  ****    0          
  1522 RES1522   9901 GROUP             0 ****  ****    0          
  1523 RES1523   9902 GROUP             0 ****  ****    0          
  1524 RES1524   9903 GROUP             0 ****  ****    0          
  1525 RES1525   9904 GROUP             0 ****  ****    0          
  1526 RES1526   9905 GROUP             0 ****  ****    0          
  1527 RES1527   9906 GROUP             0 ****  ****    0          
  1528 RES1528   9907 GROUP             0 ****  ****    0          
  1529 RES1529   9908 GROUP             0 ****  ****    0          
  1530 RES1530   9909 GROUP             0 ****  ****    0          
  1531 RES1531   9910 GROUP             0 ****  ****    0          
  1532 RES1532   9911 GROUP             0 ****  ****    0          
  1533 RES1533   9912 GROUP             0 ****  ****    0          
  1534 RES1534   9913 GROUP             0 ****  ****    0          
  1535 RES1535   9914 GROUP             0 ****  ****    0          
  1536 RES1536   9915 GROUP             0 ****  ****    0          
  1537 RES1537   9916 GROUP             0 ****  ****    0          
  1538 RES1538   9917 GROUP             0 ****  ****    0          
  1539 RES1539   9918 GROUP             0 ****  ****    0          
  1540 RES1540   9919 GROUP             0 ****  ****    0          
  1541 RES1541   9920 GROUP             0 ****  ****    0          
  1542 RES1542   9921 GROUP             0 ****  ****    0          
  1543 RES1543   9922 GROUP             0 ****  ****    0          
  1544 RES1544   9923 GROUP             0 ****  ****    0          
  1545 RES1545   9924 GROUP             0 ****  ****    0          
  1546 RES1546   9925 GROUP             0 ****  ****    0          
  1547 RES1547   9926 GROUP             0 ****  ****    0          
  1548 RES1548   9927 GROUP             0 ****  ****    0          
  1549 RES1549   9928 GROUP             0 ****  ****    0          
  1550 RES1550   9929 GROUP             0 ****  ****    0          
  1551 RES1551   9930 GROUP             0 ****  ****    0          
  1552 RES1552   9931 GROUP             0 ****  ****    0          
  1553 RES1553   9932 GROUP             0 ****  ****    0          
  1554 RES1554   9933 GROUP             0 ****  ****    0          
  1555 RES1555   9934 GROUP             0 ****  ****    0          
  1556 RES1556   9935 GROUP             0 ****  ****    0          
  1557 RES1557   9936 GROUP             0 ****  ****    0          
  1558 RES1558   9937 GROUP             0 ****  ****    0          
  1559 RES1559   9938 GROUP             0 ****  ****    0          
  1560 RES1560   9939 GROUP             0 ****  ****    0          
  1561 RES1561   9940 GROUP             0 ****  ****    0          
  1562 RES1562   9941 GROUP             0 ****  ****    0          
  1563 RES1563   9942 GROUP             0 ****  ****    0          
  1564 RES1564   9943 GROUP             0 ****  ****    0          
  1565 RES1565   9944 GROUP             0 ****  ****    0          
  1566 RES1566   9945 GROUP             0 ****  ****    0          
  1567 RES1567   9946 GROUP             0 ****  ****    0          
  1568 RES1568   9947 GROUP             0 ****  ****    0          
  1569 RES1569   9948 GROUP             0 ****  ****    0          
  1570 RES1570   9949 GROUP             0 ****  ****    0          
  1571 RES1571   9950 GROUP             0 ****  ****    0          
  1572 RES1572   9951 GROUP             0 ****  ****    0          
  1573 RES1573   9952 GROUP             0 ****  ****    0          
  1574 RES1574   9953 GROUP             0 ****  ****    0          
  1575 RES1575   9954 GROUP             0 ****  ****    0          
  1576 RES1576   9955 GROUP             0 ****  ****    0          
  1577 RES1577   9956 GROUP             0 ****  ****    0          
  1578 RES1578   9957 GROUP             0 ****  ****    0          
  1579 RES1579   9958 GROUP             0 ****  ****    0          
  1580 RES1580   9959 GROUP             0 ****  ****    0          
  1581 RES1581   9960 GROUP             0 ****  ****    0          
  1582 RES1582   9961 GROUP             0 ****  ****    0          
  1583 RES1583   9962 GROUP             0 ****  ****    0          
  1584 RES1584   9963 GROUP             0 ****  ****    0          
  1585 RES1585   9964 GROUP             0 ****  ****    0          
  1586 RES1586   9965 GROUP             0 ****  ****    0          
  1587 RES1587   9966 GROUP             0 ****  ****    0          
  1588 RES1588   9967 GROUP             0 ****  ****    0          
  1589 RES1589   9968 GROUP             0 ****  ****    0          
  1590 RES1590   9969 GROUP             0 ****  ****    0          
  1591 RES1591   9970 GROUP             0 ****  ****    0          
  1592 RES1592   9971 GROUP             0 ****  ****    0          
  1593 RES1593   9972 GROUP             0 ****  ****    0          
  1594 RES1594   9973 GROUP             0 ****  ****    0          
  1595 RES1595   9974 GROUP             0 ****  ****    0          
  1596 RES1596   9975 GROUP             0 ****  ****    0          
  1597 RES1597   9976 GROUP             0 ****  ****    0          
  1598 RES1598   9977 GROUP             0 ****  ****    0          
  1599 RES1599   9978 GROUP             0 ****  ****    0          
  1600 RES1600   9979 GROUP             0 ****  ****    0          
  1601 RES1601   9980 GROUP             0 ****  ****    0          
  1602 RES1602   9981 GROUP             0 ****  ****    0          
  1603 RES1603   9982 GROUP             0 ****  ****    0          
  1604 RES1604   9983 GROUP             0 ****  ****    0          
  1605 RES1605   9984 GROUP             0 ****  ****    0          
  1606 RES1606   9985 GROUP             0 ****  ****    0          
  1607 RES1607   9986 GROUP             0 ****  ****    0          
  1608 RES1608   9987 GROUP             0 ****  ****    0          
  1609 RES1609   9988 GROUP             0 ****  ****    0          
  1610 RES1610   9989 GROUP             0 ****  ****    0          
  1611 RES1611   9990 GROUP             0 ****  ****    0          
  1612 RES1612   9991 GROUP             0 ****  ****    0          
  1613 RES1613   9992 GROUP             0 ****  ****    0          
  1614 RES1614   9993 GROUP             0 ****  ****    0          
  1615 RES1615   9994 GROUP             0 ****  ****    0          
  1616 RES1616   9995 GROUP             0 ****  ****    0          
  1617 RES1617   9996 GROUP             0 ****  ****    0          
  1618 RES1618   9997 GROUP             0 ****  ****    0          
  1619 RES1619   9998 GROUP             0 ****  ****    0          
  1620 RES1620   9999 GROUP             0 ****  ****    0          
  1621 RES1621  10000 GROUP             0 ****  ****    0          
  1622 RES1622  10001 GROUP             0 ****  ****    0          
  1623 RES1623  10002 GROUP             0 ****  ****    0          
  1624 RES1624  10003 GROUP             0 ****  ****    0          
  1625 RES1625  10004 GROUP             0 ****  ****    0          
  1626 RES1626  10005 GROUP             0 ****  ****    0          
  1627 RES1627  10006 GROUP             0 ****  ****    0          
  1628 RES1628  10007 GROUP             0 ****  ****    0          
  1629 RES1629  10008 GROUP             0 ****  ****    0          
  1630 RES1630  10009 GROUP             0 ****  ****    0          
  1631 RES1631  10010 GROUP             0 ****  ****    0          
  1632 RES1632  10011 GROUP             0 ****  ****    0          
  1633 RES1633  10012 GROUP             0 ****  ****    0          
  1634 RES1634  10013 GROUP             0 ****  ****    0          
  1635 RES1635  10014 GROUP             0 ****  ****    0          
  1636 RES1636  10015 GROUP             0 ****  ****    0          
  1637 RES1637  10016 GROUP             0 ****  ****    0          
  1638 RES1638  10017 GROUP             0 ****  ****    0          
  1639 RES1639  10018 GROUP             0 ****  ****    0          
  1640 RES1640  10019 GROUP             0 ****  ****    0          
  1641 RES1641  10020 GROUP             0 ****  ****    0          
  1642 RES1642  10021 GROUP             0 ****  ****    0          
  1643 RES1643  10022 GROUP             0 ****  ****    0          
  1644 RES1644  10023 GROUP             0 ****  ****    0          
  1645 RES1645  10024 GROUP             0 ****  ****    0          
  1646 RES1646  10025 GROUP             0 ****  ****    0          
  1647 RES1647  10026 GROUP             0 ****  ****    0          
  1648 RES1648  10027 GROUP             0 ****  ****    0          
  1649 RES1649  10028 GROUP             0 ****  ****    0          
  1650 RES1650  10029 GROUP             0 ****  ****    0          
  1651 RES1651  10030 GROUP             0 ****  ****    0          
  1652 RES1652  10031 GROUP             0 ****  ****    0          
  1653 RES1653  10032 GROUP             0 ****  ****    0          
  1654 RES1654  10033 GROUP             0 ****  ****    0          
  1655 RES1655  10034 GROUP             0 ****  ****    0          
  1656 RES1656  10035 GROUP             0 ****  ****    0          
  1657 RES1657  10036 GROUP             0 ****  ****    0          
  1658 RES1658  10037 GROUP             0 ****  ****    0          
  1659 RES1659  10038 GROUP             0 ****  ****    0          
  1660 RES1660  10039 GROUP             0 ****  ****    0          
  1661 RES1661  10040 GROUP             0 ****  ****    0          
  1662 RES1662  10041 GROUP             0 ****  ****    0          
  1663 RES1663  10042 GROUP             0 ****  ****    0          
  1664 RES1664  10043 GROUP             0 ****  ****    0          
  1665 RES1665  10044 GROUP             0 ****  ****    0          
  1666 RES1666  10045 GROUP             0 ****  ****    0          
  1667 RES1667  10046 GROUP             0 ****  ****    0          
  1668 RES1668  10047 GROUP             0 ****  ****    0          
  1669 RES1669  10048 GROUP             0 ****  ****    0          
  1670 RES1670  10049 GROUP             0 ****  ****    0          
  1671 RES1671  10050 GROUP             0 ****  ****    0          
  1672 RES1672  10051 GROUP             0 ****  ****    0          
  1673 RES1673  10052 GROUP             0 ****  ****    0          
  1674 RES1674  10053 GROUP             0 ****  ****    0          
  1675 RES1675  10054 GROUP             0 ****  ****    0          
  1676 RES1676  10055 GROUP             0 ****  ****    0          
  1677 RES1677  10056 GROUP             0 ****  ****    0          
  1678 RES1678  10057 GROUP             0 ****  ****    0          
  1679 RES1679  10058 GROUP             0 ****  ****    0          
  1680 RES1680  10059 GROUP             0 ****  ****    0          
  1681 RES1681  10060 GROUP             0 ****  ****    0          
  1682 RES1682  10061 GROUP             0 ****  ****    0          
  1683 RES1683  10062 GROUP             0 ****  ****    0          
  1684 RES1684  10063 GROUP             0 ****  ****    0          
  1685 RES1685  10064 GROUP             0 ****  ****    0          
  1686 RES1686  10065 GROUP             0 ****  ****    0          
  1687 RES1687  10066 GROUP             0 ****  ****    0          
  1688 RES1688  10067 GROUP             0 ****  ****    0          
  1689 RES1689  10068 GROUP             0 ****  ****    0          
  1690 RES1690  10069 GROUP             0 ****  ****    0          
  1691 RES1691  10070 GROUP             0 ****  ****    0          
  1692 RES1692  10071 GROUP             0 ****  ****    0          
  1693 RES1693  10072 GROUP             0 ****  ****    0          
  1694 RES1694  10073 GROUP             0 ****  ****    0          
  1695 RES1695  10074 GROUP             0 ****  ****    0          
  1696 RES1696  10075 GROUP             0 ****  ****    0          
  1697 RES1697  10076 GROUP             0 ****  ****    0          
  1698 RES1698  10077 GROUP             0 ****  ****    0          
  1699 RES1699  10078 GROUP             0 ****  ****    0          
  1700 RES1700  10079 GROUP             0 ****  ****    0          
  1701 RES1701  10080 GROUP             0 ****  ****    0          
  1702 RES1702  10081 GROUP             0 ****  ****    0          
  1703 RES1703  10082 GROUP             0 ****  ****    0          
  1704 RES1704  10083 GROUP             0 ****  ****    0          
  1705 RES1705  10084 GROUP             0 ****  ****    0          
  1706 RES1706  10085 GROUP             0 ****  ****    0          
  1707 RES1707  10086 GROUP             0 ****  ****    0          
  1708 RES1708  10087 GROUP             0 ****  ****    0          
  1709 RES1709  10088 GROUP             0 ****  ****    0          
  1710 RES1710  10089 GROUP             0 ****  ****    0          
  1711 RES1711  10090 GROUP             0 ****  ****    0          
  1712 RES1712  10091 GROUP             0 ****  ****    0          
  1713 RES1713  10092 GROUP             0 ****  ****    0          
  1714 RES1714  10093 GROUP             0 ****  ****    0          
  1715 RES1715  10094 GROUP             0 ****  ****    0          
  1716 RES1716  10095 GROUP             0 ****  ****    0          
  1717 RES1717  10096 GROUP             0 ****  ****    0          
  1718 RES1718  10097 GROUP             0 ****  ****    0          
  1719 RES1719  10098 GROUP             0 ****  ****    0          
  1720 RES1720  10099 GROUP             0 ****  ****    0          
  1721 RES1721  10100 GROUP             0 ****  ****    0          
  1722 RES1722  10101 GROUP             0 ****  ****    0          
  1723 RES1723  10102 GROUP             0 ****  ****    0          
  1724 RES1724  10103 GROUP             0 ****  ****    0          
  1725 RES1725  10104 GROUP             0 ****  ****    0          
  1726 RES1726  10105 GROUP             0 ****  ****    0          
  1727 RES1727  10106 GROUP             0 ****  ****    0          
  1728 RES1728  10107 GROUP             0 ****  ****    0          
  1729 RES1729  10108 GROUP             0 ****  ****    0          
  1730 RES1730  10109 GROUP             0 ****  ****    0          
  1731 RES1731  10110 GROUP             0 ****  ****    0          
  1732 RES1732  10111 GROUP             0 ****  ****    0          
  1733 RES1733  10112 GROUP             0 ****  ****    0          
  1734 RES1734  10113 GROUP             0 ****  ****    0          
  1735 RES1735  10114 GROUP             0 ****  ****    0          
  1736 RES1736  10115 GROUP             0 ****  ****    0          
  1737 RES1737  10116 GROUP             0 ****  ****    0          
  1738 RES1738  10117 GROUP             0 ****  ****    0          
  1739 RES1739  10118 GROUP             0 ****  ****    0          
  1740 RES1740  10119 GROUP             0 ****  ****    0          
  1741 RES1741  10120 GROUP             0 ****  ****    0          
  1742 RES1742  10121 GROUP             0 ****  ****    0          
  1743 RES1743  10122 GROUP             0 ****  ****    0          
  1744 RES1744  10123 GROUP             0 ****  ****    0          
  1745 RES1745  10124 GROUP             0 ****  ****    0          
  1746 RES1746  10125 GROUP             0 ****  ****    0          
  1747 RES1747  10126 GROUP             0 ****  ****    0          
  1748 RES1748  10127 GROUP             0 ****  ****    0          
  1749 RES1749  10128 GROUP             0 ****  ****    0          
  1750 RES1750  10129 GROUP             0 ****  ****    0          
  1751 RES1751  10130 GROUP             0 ****  ****    0          
  1752 RES1752  10131 GROUP             0 ****  ****    0          
  1753 RES1753  10132 GROUP             0 ****  ****    0          
  1754 RES1754  10133 GROUP             0 ****  ****    0          
  1755 RES1755  10134 GROUP             0 ****  ****    0          
  1756 RES1756  10135 GROUP             0 ****  ****    0          
  1757 RES1757  10136 GROUP             0 ****  ****    0          
  1758 RES1758  10137 GROUP             0 ****  ****    0          
  1759 RES1759  10138 GROUP             0 ****  ****    0          
  1760 RES1760  10139 GROUP             0 ****  ****    0          
  1761 RES1761  10140 GROUP             0 ****  ****    0          
  1762 RES1762  10141 GROUP             0 ****  ****    0          
  1763 RES1763  10142 GROUP             0 ****  ****    0          
  1764 RES1764  10143 GROUP             0 ****  ****    0          
  1765 RES1765  10144 GROUP             0 ****  ****    0          
  1766 RES1766  10145 GROUP             0 ****  ****    0          
  1767 RES1767  10146 GROUP             0 ****  ****    0          
  1768 RES1768  10147 GROUP             0 ****  ****    0          
  1769 RES1769  10148 GROUP             0 ****  ****    0          
  1770 RES1770  10149 GROUP             0 ****  ****    0          
  1771 RES1771  10150 GROUP             0 ****  ****    0          
  1772 RES1772  10151 GROUP             0 ****  ****    0          
  1773 RES1773  10152 GROUP             0 ****  ****    0          
  1774 RES1774  10153 GROUP             0 ****  ****    0          
  1775 RES1775  10154 GROUP             0 ****  ****    0          
  1776 RES1776  10155 GROUP             0 ****  ****    0          
  1777 RES1777  10156 GROUP             0 ****  ****    0          
  1778 RES1778  10157 GROUP             0 ****  ****    0          
  1779 RES1779  10158 GROUP             0 ****  ****    0          
  1780 RES1780  10159 GROUP             0 ****  ****    0          
  1781 RES1781  10160 GROUP             0 ****  ****    0          
  1782 RES1782  10161 GROUP             0 ****  ****    0          
  1783 RES1783  10162 GROUP             0 ****  ****    0          
  1784 RES1784  10163 GROUP             0 ****  ****    0          
  1785 RES1785  10164 GROUP             0 ****  ****    0          
  1786 RES1786  10165 GROUP             0 ****  ****    0          
  1787 RES1787  10166 GROUP             0 ****  ****    0          
  1788 RES1788  10167 GROUP             0 ****  ****    0          
  1789 RES1789  10168 GROUP             0 ****  ****    0          
  1790 RES1790  10169 GROUP             0 ****  ****    0          
  1791 RES1791  10170 GROUP             0 ****  ****    0          
  1792 RES1792  10171 GROUP             0 ****  ****    0          
  1793 RES1793  10172 GROUP             0 ****  ****    0          
  1794 RES1794  10173 GROUP             0 ****  ****    0          
  1795 RES1795  10174 GROUP             0 ****  ****    0          
  1796 RES1796  10175 GROUP             0 ****  ****    0          
  1797 RES1797  10176 GROUP             0 ****  ****    0          
  1798 RES1798  10177 GROUP             0 ****  ****    0          
  1799 RES1799  10178 GROUP             0 ****  ****    0          
  1800 RES1800  10179 GROUP             0 ****  ****    0          
  1801 RES1801  10180 GROUP             0 ****  ****    0          
  1802 RES1802  10181 GROUP             0 ****  ****    0          
  1803 RES1803  10182 GROUP             0 ****  ****    0          
  1804 RES1804  10183 GROUP             0 ****  ****    0          
  1805 RES1805  10184 GROUP             0 ****  ****    0          
  1806 RES1806  10185 GROUP             0 ****  ****    0          
  1807 RES1807  10186 GROUP             0 ****  ****    0          
  1808 RES1808  10187 GROUP             0 ****  ****    0          
  1809 RES1809  10188 GROUP             0 ****  ****    0          
  1810 RES1810  10189 GROUP             0 ****  ****    0          
  1811 RES1811  10190 GROUP             0 ****  ****    0          
  1812 RES1812  10191 GROUP             0 ****  ****    0          
  1813 RES1813  10192 GROUP             0 ****  ****    0          
  1814 RES1814  10193 GROUP             0 ****  ****    0          
  1815 RES1815  10194 GROUP             0 ****  ****    0          
  1816 RES1816  10195 GROUP             0 ****  ****    0          
  1817 RES1817  10196 GROUP             0 ****  ****    0          
  1818 RES1818  10197 GROUP             0 ****  ****    0          
  1819 RES1819  10198 GROUP             0 ****  ****    0          
  1820 RES1820  10199 GROUP             0 ****  ****    0          
  1821 RES1821  10200 GROUP             0 ****  ****    0          
  1822 RES1822  10201 GROUP             0 ****  ****    0          
  1823 RES1823  10202 GROUP             0 ****  ****    0          
  1824 RES1824  10203 GROUP             0 ****  ****    0          
  1825 RES1825  10204 GROUP             0 ****  ****    0          
  1826 RES1826  10205 GROUP             0 ****  ****    0          
  1827 RES1827  10206 GROUP             0 ****  ****    0          
  1828 RES1828  10207 GROUP             0 ****  ****    0          
  1829 RES1829  10208 GROUP             0 ****  ****    0          
  1830 RES1830  10209 GROUP             0 ****  ****    0          
  1831 RES1831  10210 GROUP             0 ****  ****    0          
  1832 RES1832  10211 GROUP             0 ****  ****    0          
  1833 RES1833  10212 GROUP             0 ****  ****    0          
  1834 RES1834  10213 GROUP             0 ****  ****    0          
  1835 RES1835  10214 GROUP             0 ****  ****    0          
  1836 RES1836  10215 GROUP             0 ****  ****    0          
  1837 RES1837  10216 GROUP             0 ****  ****    0          
  1838 RES1838  10217 GROUP             0 ****  ****    0          
  1839 RES1839  10218 GROUP             0 ****  ****    0          
  1840 RES1840  10219 GROUP             0 ****  ****    0          
  1841 RES1841  10220 GROUP             0 ****  ****    0          
  1842 RES1842  10221 GROUP             0 ****  ****    0          
  1843 RES1843  10222 GROUP             0 ****  ****    0          
  1844 RES1844  10223 GROUP             0 ****  ****    0          
  1845 RES1845  10224 GROUP             0 ****  ****    0          
  1846 RES1846  10225 GROUP             0 ****  ****    0          
  1847 RES1847  10226 GROUP             0 ****  ****    0          
  1848 RES1848  10227 GROUP             0 ****  ****    0          
  1849 RES1849  10228 GROUP             0 ****  ****    0          
  1850 RES1850  10229 GROUP             0 ****  ****    0          
  1851 RES1851  10230 GROUP             0 ****  ****    0          
  1852 RES1852  10231 GROUP             0 ****  ****    0          
  1853 RES1853  10232 GROUP             0 ****  ****    0          
  1854 RES1854  10233 GROUP             0 ****  ****    0          
  1855 RES1855  10234 GROUP             0 ****  ****    0          
  1856 RES1856  10235 GROUP             0 ****  ****    0          
  1857 RES1857  10236 GROUP             0 ****  ****    0          
  1858 RES1858  10237 GROUP             0 ****  ****    0          
  1859 RES1859  10238 GROUP             0 ****  ****    0          
  1860 RES1860  10239 GROUP             0 ****  ****    0          
  1861 RES1861  10240 GROUP             0 ****  ****    0          
  1862 RES1862  10241 GROUP             0 ****  ****    0          
  1863 RES1863  10242 GROUP             0 ****  ****    0          
  1864 RES1864  10243 GROUP             0 ****  ****    0          
  1865 RES1865  10244 GROUP             0 ****  ****    0          
  1866 RES1866  10245 GROUP             0 ****  ****    0          
  1867 RES1867  10246 GROUP             0 ****  ****    0          
  1868 RES1868  10247 GROUP             0 ****  ****    0          
  1869 RES1869  10248 GROUP             0 ****  ****    0          
  1870 RES1870  10249 GROUP             0 ****  ****    0          
  1871 RES1871  10250 GROUP             0 ****  ****    0          
  1872 RES1872  10251 GROUP             0 ****  ****    0          
  1873 RES1873  10252 GROUP             0 ****  ****    0          
  1874 RES1874  10253 GROUP             0 ****  ****    0          
  1875 RES1875  10254 GROUP             0 ****  ****    0          
  1876 RES1876  10255 GROUP             0 ****  ****    0          
  1877 RES1877  10256 GROUP             0 ****  ****    0          
  1878 RES1878  10257 GROUP             0 ****  ****    0          
  1879 RES1879  10258 GROUP             0 ****  ****    0          
  1880 RES1880  10259 GROUP             0 ****  ****    0          
  1881 RES1881  10260 GROUP             0 ****  ****    0          
  1882 RES1882  10261 GROUP             0 ****  ****    0          
  1883 RES1883  10262 GROUP             0 ****  ****    0          
  1884 RES1884  10263 GROUP             0 ****  ****    0          
  1885 RES1885  10264 GROUP             0 ****  ****    0          
  1886 RES1886  10265 GROUP             0 ****  ****    0          
  1887 RES1887  10266 GROUP             0 ****  ****    0          
  1888 RES1888  10267 GROUP             0 ****  ****    0          
  1889 RES1889  10268 GROUP             0 ****  ****    0          
  1890 RES1890  10269 GROUP             0 ****  ****    0          
  1891 RES1891  10270 GROUP             0 ****  ****    0          
  1892 RES1892  10271 GROUP             0 ****  ****    0          
  1893 RES1893  10272 GROUP             0 ****  ****    0          
  1894 RES1894  10273 GROUP             0 ****  ****    0          
  1895 RES1895  10274 GROUP             0 ****  ****    0          
  1896 RES1896  10275 GROUP             0 ****  ****    0          
  1897 RES1897  10276 GROUP             0 ****  ****    0          
  1898 RES1898  10277 GROUP             0 ****  ****    0          
  1899 RES1899  10278 GROUP             0 ****  ****    0          
  1900 RES1900  10279 GROUP             0 ****  ****    0          
  1901 RES1901  10280 GROUP             0 ****  ****    0          
  1902 RES1902  10281 GROUP             0 ****  ****    0          
  1903 RES1903  10282 GROUP             0 ****  ****    0          
  1904 RES1904  10283 GROUP             0 ****  ****    0          
  1905 RES1905  10284 GROUP             0 ****  ****    0          
  1906 RES1906  10285 GROUP             0 ****  ****    0          
  1907 RES1907  10286 GROUP             0 ****  ****    0          
  1908 RES1908  10287 GROUP             0 ****  ****    0          
  1909 RES1909  10288 GROUP             0 ****  ****    0          
  1910 RES1910  10289 GROUP             0 ****  ****    0          
  1911 RES1911  10290 GROUP             0 ****  ****    0          
  1912 RES1912  10291 GROUP             0 ****  ****    0          
  1913 RES1913  10292 GROUP             0 ****  ****    0          
  1914 RES1914  10293 GROUP             0 ****  ****    0          
  1915 RES1915  10294 GROUP             0 ****  ****    0          
  1916 RES1916  10295 GROUP             0 ****  ****    0          
  1917 RES1917  10296 GROUP             0 ****  ****    0          
  1918 RES1918  10297 GROUP             0 ****  ****    0          
  1919 RES1919  10298 GROUP             0 ****  ****    0          
  1920 RES1920  10299 GROUP             0 ****  ****    0          
  1921 RES1921  10300 GROUP             0 ****  ****    0          
  1922 RES1922  10301 GROUP             0 ****  ****    0          
  1923 RES1923  10302 GROUP             0 ****  ****    0          
  1924 RES1924  10303 GROUP             0 ****  ****    0          
  1925 RES1925  10304 GROUP             0 ****  ****    0          
  1926 RES1926  10305 GROUP             0 ****  ****    0          
  1927 RES1927  10306 GROUP             0 ****  ****    0          
  1928 RES1928  10307 GROUP             0 ****  ****    0          
  1929 RES1929  10308 GROUP             0 ****  ****    0          
  1930 RES1930  10309 GROUP             0 ****  ****    0          
  1931 RES1931  10310 GROUP             0 ****  ****    0          
  1932 RES1932  10311 GROUP             0 ****  ****    0          
  1933 RES1933  10312 GROUP             0 ****  ****    0          
  1934 RES1934  10313 GROUP             0 ****  ****    0          
  1935 RES1935  10314 GROUP             0 ****  ****    0          
  1936 RES1936  10315 GROUP             0 ****  ****    0          
  1937 RES1937  10316 GROUP             0 ****  ****    0          
  1938 RES1938  10317 GROUP             0 ****  ****    0          
  1939 RES1939  10318 GROUP             0 ****  ****    0          
  1940 RES1940  10319 GROUP             0 ****  ****    0          
  1941 RES1941  10320 GROUP             0 ****  ****    0          
  1942 RES1942  10321 GROUP             0 ****  ****    0          
  1943 RES1943  10322 GROUP             0 ****  ****    0          
  1944 RES1944  10323 GROUP             0 ****  ****    0          
  1945 RES1945  10324 GROUP             0 ****  ****    0          
  1946 RES1946  10325 GROUP             0 ****  ****    0          
  1947 RES1947  10326 GROUP             0 ****  ****    0          
  1948 RES1948  10327 GROUP             0 ****  ****    0          
  1949 RES1949  10328 GROUP             0 ****  ****    0          
  1950 RES1950  10329 GROUP             0 ****  ****    0          
  1951 RES1951  10330 GROUP             0 ****  ****    0          
  1952 RES1952  10331 GROUP             0 ****  ****    0          
  1953 RES1953  10332 GROUP             0 ****  ****    0          
  1954 RES1954  10333 GROUP             0 ****  ****    0          
  1955 RES1955  10334 GROUP             0 ****  ****    0          
  1956 RES1956  10335 GROUP             0 ****  ****    0          
  1957 RES1957  10336 GROUP             0 ****  ****    0          
  1958 RES1958  10337 GROUP             0 ****  ****    0          
  1959 RES1959  10338 GROUP             0 ****  ****    0          
  1960 RES1960  10339 GROUP             0 ****  ****    0          
  1961 RES1961  10340 GROUP             0 ****  ****    0          
  1962 RES1962  10341 GROUP             0 ****  ****    0          
  1963 RES1963  10342 GROUP             0 ****  ****    0          
  1964 RES1964  10343 GROUP             0 ****  ****    0          
  1965 RES1965  10344 GROUP             0 ****  ****    0          
  1966 RES1966  10345 GROUP             0 ****  ****    0          
  1967 RES1967  10346 GROUP             0 ****  ****    0          
  1968 RES1968  10347 GROUP             0 ****  ****    0          
  1969 RES1969  10348 GROUP             0 ****  ****    0          
  1970 RES1970  10349 GROUP             0 ****  ****    0          
  1971 RES1971  10350 GROUP             0 ****  ****    0          
  1972 RES1972  10351 GROUP             0 ****  ****    0          
  1973 RES1973  10352 GROUP             0 ****  ****    0          
  1974 RES1974  10353 GROUP             0 ****  ****    0          
  1975 RES1975  10354 GROUP             0 ****  ****    0          
  1976 RES1976  10355 GROUP             0 ****  ****    0          
  1977 RES1977  10356 GROUP             0 ****  ****    0          
  1978 RES1978  10357 GROUP             0 ****  ****    0          
  1979 RES1979  10358 GROUP             0 ****  ****    0          
  1980 RES1980  10359 GROUP             0 ****  ****    0          
  1981 RES1981  10360 GROUP             0 ****  ****    0          
  1982 RES1982  10361 GROUP             0 ****  ****    0          
  1983 RES1983  10362 GROUP             0 ****  ****    0          
  1984 RES1984  10363 GROUP             0 ****  ****    0          
  1985 RES1985  10364 GROUP             0 ****  ****    0          
  1986 RES1986  10365 GROUP             0 ****  ****    0          
  1987 RES1987  10366 GROUP             0 ****  ****    0          
  1988 RES1988  10367 GROUP             0 ****  ****    0          
  1989 RES1989  10368 GROUP             0 ****  ****    0          
  1990 RES1990  10369 GROUP             0 ****  ****    0          
  1991 RES1991  10370 GROUP             0 ****  ****    0          
  1992 RES1992  10371 GROUP             0 ****  ****    0          
  1993 RES1993  10372 GROUP             0 ****  ****    0          
  1994 RES1994  10373 GROUP             0 ****  ****    0          
  1995 RES1995  10374 GROUP             0 ****  ****    0          
  1996 RES1996  10375 GROUP             0 ****  ****    0          
  1997 RES1997  10376 GROUP             0 ****  ****    0          
  1998 RES1998  10377 GROUP             0 ****  ****    0          
  1999 RES1999  10378 GROUP             0 ****  ****    0          
  2000 RES2000  10379 GROUP             0 ****  ****    0          
  2001 RES2001  10380 GROUP             0 ****  ****    0          
  2002 RES2002  10381 GROUP             0 ****  ****    0          
  2003 RES2003  10382 GROUP             0 ****  ****    0          
  2004 RES2004  10383 GROUP             0 ****  ****    0          
  2005 RES2005  10384 GROUP             0 ****  ****    0          
  2006 RES2006  10385 GROUP             0 ****  ****    0          
  2007 RES2007  10386 GROUP             0 ****  ****    0          
  2008 RES2008  10387 GROUP             0 ****  ****    0          
  2009 RES2009  10388 GROUP             0 ****  ****    0          
  2010 RES2010  10389 GROUP             0 ****  ****    0          
  2011 RES2011  10390 GROUP             0 ****  ****    0          
  2012 RES2012  10391 GROUP             0 ****  ****    0          
  2013 RES2013  10392 GROUP             0 ****  ****    0          
  2014 RES2014  10393 GROUP             0 ****  ****    0          
  2015 RES2015  10394 GROUP             0 ****  ****    0          
  2016 RES2016  10395 GROUP             0 ****  ****    0          
  2017 RES2017  10396 GROUP             0 ****  ****    0          
  2018 RES2018  10397 GROUP             0 ****  ****    0          
  2019 RES2019  10398 GROUP             0 ****  ****    0          
  2020 RES2020  10399 GROUP             0 ****  ****    0          
  2021 RES2021  10400 GROUP             0 ****  ****    0          
  2022 RES2022  10401 GROUP             0 ****  ****    0          
  2023 RES2023  10402 GROUP             0 ****  ****    0          
  2024 RES2024  10403 GROUP             0 ****  ****    0          
  2025 RES2025  10404 GROUP             0 ****  ****    0          
  2026 RES2026  10405 GROUP             0 ****  ****    0          
  2027 RES2027  10406 GROUP             0 ****  ****    0          
  2028 RES2028  10407 GROUP             0 ****  ****    0          
  2029 RES2029  10408 GROUP             0 ****  ****    0          
  2030 RES2030  10409 GROUP             0 ****  ****    0          
  2031 RES2031  10410 GROUP             0 ****  ****    0          
  2032 RES2032  10411 GROUP             0 ****  ****    0          
  2033 RES2033  10412 GROUP             0 ****  ****    0          
  2034 RES2034  10413 GROUP             0 ****  ****    0          
  2035 RES2035  10414 GROUP             0 ****  ****    0          
  2036 RES2036  10415 GROUP             0 ****  ****    0          
  2037 RES2037  10416 GROUP             0 ****  ****    0          
  2038 RES2038  10417 GROUP             0 ****  ****    0          
  2039 RES2039  10418 GROUP             0 ****  ****    0          
  2040 RES2040  10419 GROUP             0 ****  ****    0          
  2041 RES2041  10420 GROUP             0 ****  ****    0          
  2042 RES2042  10421 GROUP             0 ****  ****    0          
  2043 RES2043  10422 GROUP             0 ****  ****    0          
  2044 RES2044  10423 GROUP             0 ****  ****    0          
  2045 RES2045  10424 GROUP             0 ****  ****    0          
  2046 RES2046  10425 GROUP             0 ****  ****    0          
  2047 RES2047  10426 GROUP             0 ****  ****    0          
  2048 RES2048  10427 GROUP             0 ****  ****    0          
  2049 RES2049  10428 GROUP             0 ****  ****    0          
  2050 RES2050  10429 GROUP             0 ****  ****    0          
  2051 RES2051  10430 GROUP             0 ****  ****    0          
  2052 RES2052  10431 GROUP             0 ****  ****    0          
  2053 RES2053  10432 GROUP             0 ****  ****    0          
  2054 RES2054  10433 GROUP             0 ****  ****    0          
  2055 RES2055  10434 GROUP             0 ****  ****    0          
  2056 RES2056  10435 GROUP             0 ****  ****    0          
  2057 RES2057  10436 GROUP             0 ****  ****    0          
  2058 RES2058  10437 GROUP             0 ****  ****    0          
  2059 RES2059  10438 GROUP             0 ****  ****    0          
  2060 RES2060  10439 GROUP             0 ****  ****    0          
  2061 RES2061  10440 GROUP             0 ****  ****    0          
  2062 RES2062  10441 GROUP             0 ****  ****    0          
  2063 RES2063  10442 GROUP             0 ****  ****    0          
  2064 RES2064  10443 GROUP             0 ****  ****    0          
  2065 RES2065  10444 GROUP             0 ****  ****    0          
  2066 RES2066  10445 GROUP             0 ****  ****    0          
  2067 RES2067  10446 GROUP             0 ****  ****    0          
  2068 RES2068  10447 GROUP             0 ****  ****    0          
  2069 RES2069  10448 GROUP             0 ****  ****    0          
  2070 RES2070  10449 GROUP             0 ****  ****    0          
  2071 RES2071  10450 GROUP             0 ****  ****    0          
  2072 RES2072  10451 GROUP             0 ****  ****    0          
  2073 RES2073  10452 GROUP             0 ****  ****    0          
  2074 RES2074  10453 GROUP             0 ****  ****    0          
  2075 RES2075  10454 GROUP             0 ****  ****    0          
  2076 RES2076  10455 GROUP             0 ****  ****    0          
  2077 RES2077  10456 GROUP             0 ****  ****    0          
  2078 RES2078  10457 GROUP             0 ****  ****    0          
  2079 RES2079  10458 GROUP             0 ****  ****    0          
  2080 RES2080  10459 GROUP             0 ****  ****    0          
  2081 RES2081  10460 GROUP             0 ****  ****    0          
  2082 RES2082  10461 GROUP             0 ****  ****    0          
  2083 RES2083  10462 GROUP             0 ****  ****    0          
  2084 RES2084  10463 GROUP             0 ****  ****    0          
  2085 RES2085  10464 GROUP             0 ****  ****    0          
  2086 RES2086  10465 GROUP             0 ****  ****    0          
  2087 RES2087  10466 GROUP             0 ****  ****    0          
  2088 RES2088  10467 GROUP             0 ****  ****    0          
  2089 RES2089  10468 GROUP             0 ****  ****    0          
  2090 RES2090  10469 GROUP             0 ****  ****    0          
  2091 RES2091  10470 GROUP             0 ****  ****    0          
  2092 RES2092  10471 GROUP             0 ****  ****    0          
  2093 RES2093  10472 GROUP             0 ****  ****    0          
  2094 RES2094  10473 GROUP             0 ****  ****    0          
  2095 RES2095  10474 GROUP             0 ****  ****    0          
  2096 RES2096  10475 GROUP             0 ****  ****    0          
  2097 RES2097  10476 GROUP             0 ****  ****    0          
  2098 RES2098  10477 GROUP             0 ****  ****    0          
  2099 RES2099  10478 GROUP             0 ****  ****    0          
  2100 RES2100  10479 GROUP             0 ****  ****    0          
  2101 RES2101  10480 GROUP             0 ****  ****    0          
  2102 RES2102  10481 GROUP             0 ****  ****    0          
  2103 RES2103  10482 GROUP             0 ****  ****    0          
  2104 RES2104  10483 GROUP             0 ****  ****    0          
  2105 RES2105  10484 GROUP             0 ****  ****    0          
  2106 RES2106  10485 GROUP             0 ****  ****    0          
  2107 RES2107  10486 GROUP             0 ****  ****    0          
  2108 RES2108  10487 GROUP             0 ****  ****    0          
  2109 RES2109  10488 GROUP             0 ****  ****    0          
  2110 RES2110  10489 GROUP             0 ****  ****    0          
  2111 RES2111  10490 GROUP             0 ****  ****    0          
  2112 RES2112  10491 GROUP             0 ****  ****    0          
  2113 RES2113  10492 GROUP             0 ****  ****    0          
  2114 RES2114  10493 GROUP             0 ****  ****    0          
  2115 RES2115  10494 GROUP             0 ****  ****    0          
  2116 RES2116  10495 GROUP             0 ****  ****    0          
  2117 RES2117  10496 GROUP             0 ****  ****    0          
  2118 RES2118  10497 GROUP             0 ****  ****    0          
  2119 RES2119  10498 GROUP             0 ****  ****    0          
  2120 RES2120  10499 GROUP             0 ****  ****    0          
  2121 RES2121  10500 GROUP             0 ****  ****    0          
  2122 RES2122  10501 GROUP             0 ****  ****    0          
  2123 RES2123  10502 GROUP             0 ****  ****    0          
  2124 RES2124  10503 GROUP             0 ****  ****    0          
  2125 RES2125  10504 GROUP             0 ****  ****    0          
  2126 RES2126  10505 GROUP             0 ****  ****    0          
  2127 RES2127  10506 GROUP             0 ****  ****    0          
  2128 RES2128  10507 GROUP             0 ****  ****    0          
  2129 RES2129  10508 GROUP             0 ****  ****    0          
  2130 RES2130  10509 GROUP             0 ****  ****    0          
  2131 RES2131  10510 GROUP             0 ****  ****    0          
  2132 RES2132  10511 GROUP             0 ****  ****    0          
  2133 RES2133  10512 GROUP             0 ****  ****    0          
  2134 RES2134  10513 GROUP             0 ****  ****    0          
  2135 RES2135  10514 GROUP             0 ****  ****    0          
  2136 RES2136  10515 GROUP             0 ****  ****    0          
  2137 RES2137  10516 GROUP             0 ****  ****    0          
  2138 RES2138  10517 GROUP             0 ****  ****    0          
  2139 RES2139  10518 GROUP             0 ****  ****    0          
  2140 RES2140  10519 GROUP             0 ****  ****    0          
  2141 RES2141  10520 GROUP             0 ****  ****    0          
  2142 RES2142  10521 GROUP             0 ****  ****    0          
  2143 RES2143  10522 GROUP             0 ****  ****    0          
  2144 RES2144  10523 GROUP             0 ****  ****    0          
  2145 RES2145  10524 GROUP             0 ****  ****    0          
  2146 RES2146  10525 GROUP             0 ****  ****    0          
  2147 RES2147  10526 GROUP             0 ****  ****    0          
  2148 RES2148  10527 GROUP             0 ****  ****    0          
  2149 RES2149  10528 GROUP             0 ****  ****    0          
  2150 RES2150  10529 GROUP             0 ****  ****    0          
  2151 RES2151  10530 GROUP             0 ****  ****    0          
  2152 RES2152  10531 GROUP             0 ****  ****    0          
  2153 RES2153  10532 GROUP             0 ****  ****    0          
  2154 RES2154  10533 GROUP             0 ****  ****    0          
  2155 RES2155  10534 GROUP             0 ****  ****    0          
  2156 RES2156  10535 GROUP             0 ****  ****    0          
  2157 RES2157  10536 GROUP             0 ****  ****    0          
  2158 RES2158  10537 GROUP             0 ****  ****    0          
  2159 RES2159  10538 GROUP             0 ****  ****    0          
  2160 RES2160  10539 GROUP             0 ****  ****    0          
  2161 RES2161  10540 GROUP             0 ****  ****    0          
  2162 RES2162  10541 GROUP             0 ****  ****    0          
  2163 RES2163  10542 GROUP             0 ****  ****    0          
  2164 RES2164  10543 GROUP             0 ****  ****    0          
  2165 RES2165  10544 GROUP             0 ****  ****    0          
  2166 RES2166  10545 GROUP             0 ****  ****    0          
  2167 RES2167  10546 GROUP             0 ****  ****    0          
  2168 RES2168  10547 GROUP             0 ****  ****    0          
  2169 RES2169  10548 GROUP             0 ****  ****    0          
  2170 RES2170  10549 GROUP             0 ****  ****    0          
  2171 RES2171  10550 GROUP             0 ****  ****    0          
  2172 RES2172  10551 GROUP             0 ****  ****    0          
  2173 RES2173  10552 GROUP             0 ****  ****    0          
  2174 RES2174  10553 GROUP             0 ****  ****    0          
  2175 RES2175  10554 GROUP             0 ****  ****    0          
  2176 RES2176  10555 GROUP             0 ****  ****    0          
  2177 RES2177  10556 GROUP             0 ****  ****    0          
  2178 RES2178  10557 GROUP             0 ****  ****    0          
  2179 RES2179  10558 GROUP             0 ****  ****    0          
  2180 RES2180  10559 GROUP             0 ****  ****    0          
  2181 RES2181  10560 GROUP             0 ****  ****    0          
  2182 RES2182  10561 GROUP             0 ****  ****    0          
  2183 RES2183  10562 GROUP             0 ****  ****    0          
  2184 RES2184  10563 GROUP             0 ****  ****    0          
  2185 RES2185  10564 GROUP             0 ****  ****    0          
  2186 RES2186  10565 GROUP             0 ****  ****    0          
  2187 RES2187  10566 GROUP             0 ****  ****    0          
  2188 RES2188  10567 GROUP             0 ****  ****    0          
  2189 RES2189  10568 GROUP             0 ****  ****    0          
  2190 RES2190  10569 GROUP             0 ****  ****    0          
  2191 RES2191  10570 GROUP             0 ****  ****    0          
  2192 RES2192  10571 GROUP             0 ****  ****    0          
  2193 RES2193  10572 GROUP             0 ****  ****    0          
  2194 RES2194  10573 GROUP             0 ****  ****    0          
  2195 RES2195  10574 GROUP             0 ****  ****    0          
  2196 RES2196  10575 GROUP             0 ****  ****    0          
  2197 RES2197  10576 GROUP             0 ****  ****    0          
  2198 RES2198  10577 GROUP             0 ****  ****    0          
  2199 RES2199  10578 GROUP             0 ****  ****    0          
  2200 RES2200  10579 GROUP             0 ****  ****    0          
  2201 RES2201  10580 GROUP             0 ****  ****    0          
  2202 RES2202  10581 GROUP             0 ****  ****    0          
  2203 RES2203  10582 GROUP             0 ****  ****    0          
  2204 RES2204  10583 GROUP             0 ****  ****    0          
  2205 RES2205  10584 GROUP             0 ****  ****    0          
  2206 RES2206  10585 GROUP             0 ****  ****    0          
  2207 RES2207  10586 GROUP             0 ****  ****    0          
  2208 RES2208  10587 GROUP             0 ****  ****    0          
  2209 RES2209  10588 GROUP             0 ****  ****    0          
  2210 RES2210  10589 GROUP             0 ****  ****    0          
  2211 RES2211  10590 GROUP             0 ****  ****    0          
  2212 RES2212  10591 GROUP             0 ****  ****    0          
  2213 RES2213  10592 GROUP             0 ****  ****    0          
  2214 RES2214  10593 GROUP             0 ****  ****    0          
  2215 RES2215  10594 GROUP             0 ****  ****    0          
  2216 RES2216  10595 GROUP             0 ****  ****    0          
  2217 RES2217  10596 GROUP             0 ****  ****    0          
  2218 RES2218  10597 GROUP             0 ****  ****    0          
  2219 RES2219  10598 GROUP             0 ****  ****    0          
  2220 RES2220  10599 GROUP             0 ****  ****    0          
  2221 RES2221  10600 GROUP             0 ****  ****    0          
  2222 RES2222  10601 GROUP             0 ****  ****    0          
  2223 RES2223  10602 GROUP             0 ****  ****    0          
  2224 RES2224  10603 GROUP             0 ****  ****    0          
  2225 RES2225  10604 GROUP             0 ****  ****    0          
  2226 RES2226  10605 GROUP             0 ****  ****    0          
  2227 RES2227  10606 GROUP             0 ****  ****    0          
  2228 RES2228  10607 GROUP             0 ****  ****    0          
  2229 RES2229  10608 GROUP             0 ****  ****    0          
  2230 RES2230  10609 GROUP             0 ****  ****    0          
  2231 RES2231  10610 GROUP             0 ****  ****    0          
  2232 RES2232  10611 GROUP             0 ****  ****    0          
  2233 RES2233  10612 GROUP             0 ****  ****    0          
  2234 RES2234  10613 GROUP             0 ****  ****    0          
  2235 RES2235  10614 GROUP             0 ****  ****    0          
  2236 RES2236  10615 GROUP             0 ****  ****    0          
  2237 RES2237  10616 GROUP             0 ****  ****    0          
  2238 RES2238  10617 GROUP             0 ****  ****    0          
  2239 RES2239  10618 GROUP             0 ****  ****    0          
  2240 RES2240  10619 GROUP             0 ****  ****    0          
  2241 RES2241  10620 GROUP             0 ****  ****    0          
  2242 RES2242  10621 GROUP             0 ****  ****    0          
  2243 RES2243  10622 GROUP             0 ****  ****    0          
  2244 RES2244  10623 GROUP             0 ****  ****    0          
  2245 RES2245  10624 GROUP             0 ****  ****    0          
  2246 RES2246  10625 GROUP             0 ****  ****    0          
  2247 RES2247  10626 GROUP             0 ****  ****    0          
  2248 RES2248  10627 GROUP             0 ****  ****    0          
  2249 RES2249  10628 GROUP             0 ****  ****    0          
  2250 RES2250  10629 GROUP             0 ****  ****    0          
  2251 RES2251  10630 GROUP             0 ****  ****    0          
  2252 RES2252  10631 GROUP             0 ****  ****    0          
  2253 RES2253  10632 GROUP             0 ****  ****    0          
  2254 RES2254  10633 GROUP             0 ****  ****    0          
  2255 RES2255  10634 GROUP             0 ****  ****    0          
  2256 RES2256  10635 GROUP             0 ****  ****    0          
  2257 RES2257  10636 GROUP             0 ****  ****    0          
  2258 RES2258  10637 GROUP             0 ****  ****    0          
  2259 RES2259  10638 GROUP             0 ****  ****    0          
  2260 RES2260  10639 GROUP             0 ****  ****    0          
  2261 RES2261  10640 GROUP             0 ****  ****    0          
  2262 RES2262  10641 GROUP             0 ****  ****    0          
  2263 RES2263  10642 GROUP             0 ****  ****    0          
  2264 RES2264  10643 GROUP             0 ****  ****    0          
  2265 RES2265  10644 GROUP             0 ****  ****    0          
  2266 RES2266  10645 GROUP             0 ****  ****    0          
  2267 RES2267  10646 GROUP             0 ****  ****    0          
  2268 RES2268  10647 GROUP             0 ****  ****    0          
  2269 RES2269  10648 GROUP             0 ****  ****    0          
  2270 RES2270  10649 GROUP             0 ****  ****    0          
  2271 RES2271  10650 GROUP             0 ****  ****    0          
  2272 RES2272  10651 GROUP             0 ****  ****    0          
  2273 RES2273  10652 GROUP             0 ****  ****    0          
  2274 RES2274  10653 GROUP             0 ****  ****    0          
  2275 RES2275  10654 GROUP             0 ****  ****    0          
  2276 RES2276  10655 GROUP             0 ****  ****    0          
  2277 RES2277  10656 GROUP             0 ****  ****    0          
  2278 RES2278  10657 GROUP             0 ****  ****    0          
  2279 RES2279  10658 GROUP             0 ****  ****    0          
  2280 RES2280  10659 GROUP             0 ****  ****    0          
  2281 RES2281  10660 GROUP             0 ****  ****    0          
  2282 RES2282  10661 GROUP             0 ****  ****    0          
  2283 RES2283  10662 GROUP             0 ****  ****    0          
  2284 RES2284  10663 GROUP             0 ****  ****    0          
  2285 RES2285  10664 GROUP             0 ****  ****    0          
  2286 RES2286  10665 GROUP             0 ****  ****    0          
  2287 RES2287  10666 GROUP             0 ****  ****    0          
  2288 RES2288  10667 GROUP             0 ****  ****    0          
  2289 RES2289  10668 GROUP             0 ****  ****    0          
  2290 RES2290  10669 GROUP             0 ****  ****    0          
  2291 RES2291  10670 GROUP             0 ****  ****    0          
  2292 RES2292  10671 GROUP             0 ****  ****    0          
  2293 RES2293  10672 GROUP             0 ****  ****    0          
  2294 RES2294  10673 GROUP             0 ****  ****    0          
  2295 RES2295  10674 GROUP             0 ****  ****    0          
  2296 RES2296  10675 GROUP             0 ****  ****    0          
  2297 RES2297  10676 GROUP             0 ****  ****    0          
  2298 RES2298  10677 GROUP             0 ****  ****    0          
  2299 RES2299  10678 GROUP             0 ****  ****    0          
  2300 RES2300  10679 GROUP             0 ****  ****    0          
  2301 RES2301  10680 GROUP             0 ****  ****    0          
  2302 RES2302  10681 GROUP             0 ****  ****    0          
  2303 RES2303  10682 GROUP             0 ****  ****    0          
  2304 RES2304  10683 GROUP             0 ****  ****    0          
  2305 RES2305  10684 GROUP             0 ****  ****    0          
  2306 RES2306  10685 GROUP             0 ****  ****    0          
  2307 RES2307  10686 GROUP             0 ****  ****    0          
  2308 RES2308  10687 GROUP             0 ****  ****    0          
  2309 RES2309  10688 GROUP             0 ****  ****    0          
  2310 RES2310  10689 GROUP             0 ****  ****    0          
  2311 RES2311  10690 GROUP             0 ****  ****    0          
  2312 RES2312  10691 GROUP             0 ****  ****    0          
  2313 RES2313  10692 GROUP             0 ****  ****    0          
  2314 RES2314  10693 GROUP             0 ****  ****    0          
  2315 RES2315  10694 GROUP             0 ****  ****    0          
  2316 RES2316  10695 GROUP             0 ****  ****    0          
  2317 RES2317  10696 GROUP             0 ****  ****    0          
  2318 RES2318  10697 GROUP             0 ****  ****    0          
  2319 RES2319  10698 GROUP             0 ****  ****    0          
  2320 RES2320  10699 GROUP             0 ****  ****    0          
  2321 RES2321  10700 GROUP             0 ****  ****    0          
  2322 RES2322  10701 GROUP             0 ****  ****    0          
  2323 RES2323  10702 GROUP             0 ****  ****    0          
  2324 RES2324  10703 GROUP             0 ****  ****    0          
  2325 RES2325  10704 GROUP             0 ****  ****    0          
  2326 RES2326  10705 GROUP             0 ****  ****    0          
  2327 RES2327  10706 GROUP             0 ****  ****    0          
  2328 RES2328  10707 GROUP             0 ****  ****    0          
  2329 RES2329  10708 GROUP             0 ****  ****    0          
  2330 RES2330  10709 GROUP             0 ****  ****    0          
  2331 RES2331  10710 GROUP             0 ****  ****    0          
  2332 RES2332  10711 GROUP             0 ****  ****    0          
  2333 RES2333  10712 GROUP             0 ****  ****    0          
  2334 RES2334  10713 GROUP             0 ****  ****    0          
  2335 RES2335  10714 GROUP             0 ****  ****    0          
  2336 RES2336  10715 GROUP             0 ****  ****    0          
  2337 RES2337  10716 GROUP             0 ****  ****    0          
  2338 RES2338  10717 GROUP             0 ****  ****    0          
  2339 RES2339  10718 GROUP             0 ****  ****    0          
  2340 RES2340  10719 GROUP             0 ****  ****    0          
  2341 RES2341  10720 GROUP             0 ****  ****    0          
  2342 RES2342  10721 GROUP             0 ****  ****    0          
  2343 RES2343  10722 GROUP             0 ****  ****    0          
  2344 RES2344  10723 GROUP             0 ****  ****    0          
  2345 RES2345  10724 GROUP             0 ****  ****    0          
  2346 RES2346  10725 GROUP             0 ****  ****    0          
  2347 RES2347  10726 GROUP             0 ****  ****    0          
@<TRIPOS>CRYSIN

