@<TRIPOS>MOLECULE
MOL
  3510  4332     0
SMALL
NO_CHARGES
****
ITC 2023. ALL RIGHTS RESERVED.

@<TRIPOS>ATOM
     1 O1       3.5317   1.9502  20.7465   O         1 RES1   0.0000
     2 C2       4.2072   4.2072  20.7465   C         1 RES1   0.0000
     3 C3       3.8452   5.5418  20.7465   C         1 RES1   0.0000
     4 H1       2.9273   5.7862  20.7465   H         1 RES1   0.0000
     5 C1       3.1491   3.1491  20.7465   C         1 RES1   0.0000
     6 O1       1.9502   3.5317  20.7465   O         1 RES1   0.0000
     7 C3       5.5418   3.8452  20.7465   C         1 RES1   0.0000
     8 H1       5.7862   2.9273  20.7465   H         1 RES1   0.0000
     9 C3       6.5281   4.8314  20.7465   C         1 RES1   0.0000
    10 C3       4.8314   6.5281  20.7465   C         1 RES1   0.0000
    11 O1       3.5317   1.9502  41.4930   O         1 RES1   0.0000
    12 C2       4.2072   4.2072  41.4930   C         1 RES1   0.0000
    13 C3       3.8452   5.5418  41.4930   C         1 RES1   0.0000
    14 H1       2.9273   5.7862  41.4930   H         1 RES1   0.0000
    15 C1       3.1491   3.1491  41.4930   C         1 RES1   0.0000
    16 O1       1.9502   3.5317  41.4930   O         1 RES1   0.0000
    17 C3       5.5418   3.8452  41.4930   C         1 RES1   0.0000
    18 H1       5.7862   2.9273  41.4930   H         1 RES1   0.0000
    19 C3       6.5281   4.8314  41.4930   C         1 RES1   0.0000
    20 C3       4.8314   6.5281  41.4930   C         1 RES1   0.0000
    21 O1       1.9502  20.7465   3.5317   O         1 RES1   0.0000
    22 C2       4.2072  20.7465   4.2072   C         1 RES1   0.0000
    23 C3       5.5418  20.7465   3.8452   C         1 RES1   0.0000
    24 H1       5.7862  20.7465   2.9273   H         1 RES1   0.0000
    25 C1       3.1491  20.7465   3.1491   C         1 RES1   0.0000
    26 O1       3.5317  20.7465   1.9502   O         1 RES1   0.0000
    27 C3       3.8452  20.7465   5.5418   C         1 RES1   0.0000
    28 H1       2.9273  20.7465   5.7862   H         1 RES1   0.0000
    29 C3       4.8314  20.7465   6.5281   C         1 RES1   0.0000
    30 C3       6.5281  20.7465   4.8314   C         1 RES1   0.0000
    31 O1       1.9502  20.7465  24.2782   O         1 RES1   0.0000
    32 C2       4.2072  20.7465  24.9537   C         1 RES1   0.0000
    33 C3       5.5418  20.7465  24.5917   C         1 RES1   0.0000
    34 H1       5.7862  20.7465  23.6738   H         1 RES1   0.0000
    35 C1       3.1491  20.7465  23.8956   C         1 RES1   0.0000
    36 O3       1.0477  21.7942  21.7942   O         1 RES1   0.0000
    37 Zr       2.4844  20.7465  20.7465   Z         1 RES1   0.0000
    38 O1       3.5317  22.6967  20.7465   O         1 RES1   0.0000
    39 C2       4.2072  24.9537  20.7465   C         1 RES1   0.0000
    40 C3       3.8452  26.2883  20.7465   C         1 RES1   0.0000
    41 H1       2.9273  26.5327  20.7465   H         1 RES1   0.0000
    42 O3       1.0477  19.6988  19.6988   O         1 RES1   0.0000
    43 C1       3.1491  23.8956  20.7465   C         1 RES1   0.0000
    44 O1       3.5317  18.7963  20.7465   O         1 RES1   0.0000
    45 C2       4.2072  16.5393  20.7465   C         1 RES1   0.0000
    46 C3       3.8452  15.2047  20.7465   C         1 RES1   0.0000
    47 H1       2.9273  14.9603  20.7465   H         1 RES1   0.0000
    48 C1       3.1491  17.5974  20.7465   C         1 RES1   0.0000
    49 O3       1.0477  21.7942  19.6988   O         1 RES1   0.0000
    50 O3       1.0477  19.6988  21.7942   O         1 RES1   0.0000
    51 O1       1.9502  24.2782  20.7465   O         1 RES1   0.0000
    52 C3       5.5418  24.5917  20.7465   C         1 RES1   0.0000
    53 H1       5.7862  23.6738  20.7465   H         1 RES1   0.0000
    54 O1       1.9502  17.2148  20.7465   O         1 RES1   0.0000
    55 C3       5.5418  16.9013  20.7465   C         1 RES1   0.0000
    56 H1       5.7862  17.8192  20.7465   H         1 RES1   0.0000
    57 O1       3.5317  20.7465  18.7963   O         1 RES1   0.0000
    58 C2       4.2072  20.7465  16.5393   C         1 RES1   0.0000
    59 C3       3.8452  20.7465  15.2047   C         1 RES1   0.0000
    60 H1       2.9273  20.7465  14.9603   H         1 RES1   0.0000
    61 C1       3.1491  20.7465  17.5974   C         1 RES1   0.0000
    62 O1       3.5317  20.7465  22.6967   O         1 RES1   0.0000
    63 C3       3.8452  20.7465  26.2883   C         1 RES1   0.0000
    64 H1       2.9273  20.7465  26.5327   H         1 RES1   0.0000
    65 O1       1.9502  20.7465  17.2148   O         1 RES1   0.0000
    66 C3       5.5418  20.7465  16.9013   C         1 RES1   0.0000
    67 H1       5.7862  20.7465  17.8192   H         1 RES1   0.0000
    68 C3       4.8314  20.7465  14.2184   C         1 RES1   0.0000
    69 C3       4.8314  20.7465  27.2746   C         1 RES1   0.0000
    70 C3       6.5281  20.7465  15.9151   C         1 RES1   0.0000
    71 C3       6.5281  20.7465  25.5779   C         1 RES1   0.0000
    72 C3       6.5281  25.5779  20.7465   C         1 RES1   0.0000
    73 C3       6.5281  15.9151  20.7465   C         1 RES1   0.0000
    74 C3       4.8314  14.2184  20.7465   C         1 RES1   0.0000
    75 C3       4.8314  27.2746  20.7465   C         1 RES1   0.0000
    76 Zr       2.4844  20.7465  41.4930   Z         1 RES1   0.0000
    77 O1       3.5317  22.6967  41.4930   O         1 RES1   0.0000
    78 C2       4.2072  24.9537  41.4930   C         1 RES1   0.0000
    79 C3       3.8452  26.2883  41.4930   C         1 RES1   0.0000
    80 H1       2.9273  26.5327  41.4930   H         1 RES1   0.0000
    81 O3       1.0477  19.6988  40.4453   O         1 RES1   0.0000
    82 C1       3.1491  23.8956  41.4930   C         1 RES1   0.0000
    83 O1       3.5317  18.7963  41.4930   O         1 RES1   0.0000
    84 C2       4.2072  16.5393  41.4930   C         1 RES1   0.0000
    85 C3       3.8452  15.2047  41.4930   C         1 RES1   0.0000
    86 H1       2.9273  14.9603  41.4930   H         1 RES1   0.0000
    87 C1       3.1491  17.5974  41.4930   C         1 RES1   0.0000
    88 O3       1.0477  21.7942  40.4453   O         1 RES1   0.0000
    89 O1       1.9502  24.2782  41.4930   O         1 RES1   0.0000
    90 C3       5.5418  24.5917  41.4930   C         1 RES1   0.0000
    91 H1       5.7862  23.6738  41.4930   H         1 RES1   0.0000
    92 O1       1.9502  17.2148  41.4930   O         1 RES1   0.0000
    93 C3       5.5418  16.9013  41.4930   C         1 RES1   0.0000
    94 H1       5.7862  17.8192  41.4930   H         1 RES1   0.0000
    95 O1       3.5317  20.7465  39.5428   O         1 RES1   0.0000
    96 C2       4.2072  20.7465  37.2858   C         1 RES1   0.0000
    97 C3       3.8452  20.7465  35.9512   C         1 RES1   0.0000
    98 H1       2.9273  20.7465  35.7068   H         1 RES1   0.0000
    99 C1       3.1491  20.7465  38.3439   C         1 RES1   0.0000
   100 O1       1.9502  20.7465  37.9613   O         1 RES1   0.0000
   101 C3       5.5418  20.7465  37.6478   C         1 RES1   0.0000
   102 H1       5.7862  20.7465  38.5657   H         1 RES1   0.0000
   103 C3       4.8314  20.7465  34.9649   C         1 RES1   0.0000
   104 C3       6.5281  20.7465  36.6616   C         1 RES1   0.0000
   105 C3       6.5281  25.5779  41.4930   C         1 RES1   0.0000
   106 C3       6.5281  15.9151  41.4930   C         1 RES1   0.0000
   107 C3       4.8314  14.2184  41.4930   C         1 RES1   0.0000
   108 C3       4.8314  27.2746  41.4930   C         1 RES1   0.0000
   109 O1       1.9502  41.4930   3.5317   O         1 RES1   0.0000
   110 C2       4.2072  41.4930   4.2072   C         1 RES1   0.0000
   111 C3       5.5418  41.4930   3.8452   C         1 RES1   0.0000
   112 H1       5.7862  41.4930   2.9273   H         1 RES1   0.0000
   113 C1       3.1491  41.4930   3.1491   C         1 RES1   0.0000
   114 O1       3.5317  41.4930   1.9502   O         1 RES1   0.0000
   115 C3       3.8452  41.4930   5.5418   C         1 RES1   0.0000
   116 H1       2.9273  41.4930   5.7862   H         1 RES1   0.0000
   117 C3       4.8314  41.4930   6.5281   C         1 RES1   0.0000
   118 C3       6.5281  41.4930   4.8314   C         1 RES1   0.0000
   119 O1       1.9502  41.4930  24.2782   O         1 RES1   0.0000
   120 C2       4.2072  41.4930  24.9537   C         1 RES1   0.0000
   121 C3       5.5418  41.4930  24.5917   C         1 RES1   0.0000
   122 H1       5.7862  41.4930  23.6738   H         1 RES1   0.0000
   123 C1       3.1491  41.4930  23.8956   C         1 RES1   0.0000
   124 Zr       2.4844  41.4930  20.7465   Z         1 RES1   0.0000
   125 O3       1.0477  40.4453  19.6988   O         1 RES1   0.0000
   126 O1       3.5317  39.5428  20.7465   O         1 RES1   0.0000
   127 C2       4.2072  37.2858  20.7465   C         1 RES1   0.0000
   128 C3       3.8452  35.9512  20.7465   C         1 RES1   0.0000
   129 H1       2.9273  35.7068  20.7465   H         1 RES1   0.0000
   130 C1       3.1491  38.3439  20.7465   C         1 RES1   0.0000
   131 O3       1.0477  40.4453  21.7942   O         1 RES1   0.0000
   132 O1       1.9502  37.9613  20.7465   O         1 RES1   0.0000
   133 C3       5.5418  37.6478  20.7465   C         1 RES1   0.0000
   134 H1       5.7862  38.5657  20.7465   H         1 RES1   0.0000
   135 O1       3.5317  41.4930  18.7963   O         1 RES1   0.0000
   136 C2       4.2072  41.4930  16.5393   C         1 RES1   0.0000
   137 C3       3.8452  41.4930  15.2047   C         1 RES1   0.0000
   138 H1       2.9273  41.4930  14.9603   H         1 RES1   0.0000
   139 C1       3.1491  41.4930  17.5974   C         1 RES1   0.0000
   140 O1       3.5317  41.4930  22.6967   O         1 RES1   0.0000
   141 C3       3.8452  41.4930  26.2883   C         1 RES1   0.0000
   142 H1       2.9273  41.4930  26.5327   H         1 RES1   0.0000
   143 O1       1.9502  41.4930  17.2148   O         1 RES1   0.0000
   144 C3       5.5418  41.4930  16.9013   C         1 RES1   0.0000
   145 H1       5.7862  41.4930  17.8192   H         1 RES1   0.0000
   146 C3       4.8314  41.4930  14.2184   C         1 RES1   0.0000
   147 C3       4.8314  41.4930  27.2746   C         1 RES1   0.0000
   148 C3       6.5281  41.4930  15.9151   C         1 RES1   0.0000
   149 C3       6.5281  41.4930  25.5779   C         1 RES1   0.0000
   150 C3       6.5281  36.6616  20.7465   C         1 RES1   0.0000
   151 C3       4.8314  34.9649  20.7465   C         1 RES1   0.0000
   152 Zr       2.4844  41.4930  41.4930   Z         1 RES1   0.0000
   153 O3       1.0477  40.4453  40.4453   O         1 RES1   0.0000
   154 O1       3.5317  39.5428  41.4930   O         1 RES1   0.0000
   155 C2       4.2072  37.2858  41.4930   C         1 RES1   0.0000
   156 C3       3.8452  35.9512  41.4930   C         1 RES1   0.0000
   157 H1       2.9273  35.7068  41.4930   H         1 RES1   0.0000
   158 C1       3.1491  38.3439  41.4930   C         1 RES1   0.0000
   159 O1       1.9502  37.9613  41.4930   O         1 RES1   0.0000
   160 C3       5.5418  37.6478  41.4930   C         1 RES1   0.0000
   161 H1       5.7862  38.5657  41.4930   H         1 RES1   0.0000
   162 O1       3.5317  41.4930  39.5428   O         1 RES1   0.0000
   163 C2       4.2072  41.4930  37.2858   C         1 RES1   0.0000
   164 C3       3.8452  41.4930  35.9512   C         1 RES1   0.0000
   165 H1       2.9273  41.4930  35.7068   H         1 RES1   0.0000
   166 C1       3.1491  41.4930  38.3439   C         1 RES1   0.0000
   167 O1       1.9502  41.4930  37.9613   O         1 RES1   0.0000
   168 C3       5.5418  41.4930  37.6478   C         1 RES1   0.0000
   169 H1       5.7862  41.4930  38.5657   H         1 RES1   0.0000
   170 C3       4.8314  41.4930  34.9649   C         1 RES1   0.0000
   171 C3       6.5281  41.4930  36.6616   C         1 RES1   0.0000
   172 C3       6.5281  36.6616  41.4930   C         1 RES1   0.0000
   173 C3       4.8314  34.9649  41.4930   C         1 RES1   0.0000
   174 O1      20.7465   3.5317   1.9502   O         1 RES1   0.0000
   175 C2      20.7465   4.2072   4.2072   C         1 RES1   0.0000
   176 C3      20.7465   3.8452   5.5418   C         1 RES1   0.0000
   177 H1      20.7465   2.9273   5.7862   H         1 RES1   0.0000
   178 C1      20.7465   3.1491   3.1491   C         1 RES1   0.0000
   179 O1      20.7465   1.9502   3.5317   O         1 RES1   0.0000
   180 C3      20.7465   5.5418   3.8452   C         1 RES1   0.0000
   181 H1      20.7465   5.7862   2.9273   H         1 RES1   0.0000
   182 C3      20.7465   6.5281   4.8314   C         1 RES1   0.0000
   183 C3      20.7465   4.8314   6.5281   C         1 RES1   0.0000
   184 O3      21.7942   1.0477  21.7942   O         1 RES1   0.0000
   185 O1      24.2782   1.9502  20.7465   O         1 RES1   0.0000
   186 C2      24.9537   4.2072  20.7465   C         1 RES1   0.0000
   187 C3      24.5917   5.5418  20.7465   C         1 RES1   0.0000
   188 H1      23.6738   5.7862  20.7465   H         1 RES1   0.0000
   189 C1      23.8956   3.1491  20.7465   C         1 RES1   0.0000
   190 O3      19.6988   1.0477  19.6988   O         1 RES1   0.0000
   191 O1      17.2148   1.9502  20.7465   O         1 RES1   0.0000
   192 C2      16.5393   4.2072  20.7465   C         1 RES1   0.0000
   193 C3      16.9013   5.5418  20.7465   C         1 RES1   0.0000
   194 H1      17.8192   5.7862  20.7465   H         1 RES1   0.0000
   195 C1      17.5974   3.1491  20.7465   C         1 RES1   0.0000
   196 Zr      20.7465   2.4844  20.7465   Z         1 RES1   0.0000
   197 O1      20.7465   3.5317  22.6967   O         1 RES1   0.0000
   198 C2      20.7465   4.2072  24.9537   C         1 RES1   0.0000
   199 C3      20.7465   3.8452  26.2883   C         1 RES1   0.0000
   200 H1      20.7465   2.9273  26.5327   H         1 RES1   0.0000
   201 C1      20.7465   3.1491  23.8956   C         1 RES1   0.0000
   202 O1      20.7465   3.5317  18.7963   O         1 RES1   0.0000
   203 C2      20.7465   4.2072  16.5393   C         1 RES1   0.0000
   204 C3      20.7465   3.8452  15.2047   C         1 RES1   0.0000
   205 H1      20.7465   2.9273  14.9603   H         1 RES1   0.0000
   206 C1      20.7465   3.1491  17.5974   C         1 RES1   0.0000
   207 O1      20.7465   1.9502  17.2148   O         1 RES1   0.0000
   208 C3      20.7465   5.5418  16.9013   C         1 RES1   0.0000
   209 H1      20.7465   5.7862  17.8192   H         1 RES1   0.0000
   210 O3      21.7942   1.0477  19.6988   O         1 RES1   0.0000
   211 O3      19.6988   1.0477  21.7942   O         1 RES1   0.0000
   212 O1      20.7465   1.9502  24.2782   O         1 RES1   0.0000
   213 C3      20.7465   5.5418  24.5917   C         1 RES1   0.0000
   214 H1      20.7465   5.7862  23.6738   H         1 RES1   0.0000
   215 O1      22.6967   3.5317  20.7465   O         1 RES1   0.0000
   216 C3      26.2883   3.8452  20.7465   C         1 RES1   0.0000
   217 H1      26.5327   2.9273  20.7465   H         1 RES1   0.0000
   218 O1      18.7963   3.5317  20.7465   O         1 RES1   0.0000
   219 C3      15.2047   3.8452  20.7465   C         1 RES1   0.0000
   220 H1      14.9603   2.9273  20.7465   H         1 RES1   0.0000
   221 C3      20.7465   6.5281  25.5779   C         1 RES1   0.0000
   222 C3      20.7465   6.5281  15.9151   C         1 RES1   0.0000
   223 C3      20.7465   4.8314  27.2746   C         1 RES1   0.0000
   224 C3      20.7465   4.8314  14.2184   C         1 RES1   0.0000
   225 C3      14.2184   4.8314  20.7465   C         1 RES1   0.0000
   226 C3      27.2746   4.8314  20.7465   C         1 RES1   0.0000
   227 C3      25.5779   6.5281  20.7465   C         1 RES1   0.0000
   228 C3      15.9151   6.5281  20.7465   C         1 RES1   0.0000
   229 O1      24.2782   1.9502  41.4930   O         1 RES1   0.0000
   230 C2      24.9537   4.2072  41.4930   C         1 RES1   0.0000
   231 C3      24.5917   5.5418  41.4930   C         1 RES1   0.0000
   232 H1      23.6738   5.7862  41.4930   H         1 RES1   0.0000
   233 C1      23.8956   3.1491  41.4930   C         1 RES1   0.0000
   234 O3      19.6988   1.0477  40.4453   O         1 RES1   0.0000
   235 O1      17.2148   1.9502  41.4930   O         1 RES1   0.0000
   236 C2      16.5393   4.2072  41.4930   C         1 RES1   0.0000
   237 C3      16.9013   5.5418  41.4930   C         1 RES1   0.0000
   238 H1      17.8192   5.7862  41.4930   H         1 RES1   0.0000
   239 C1      17.5974   3.1491  41.4930   C         1 RES1   0.0000
   240 Zr      20.7465   2.4844  41.4930   Z         1 RES1   0.0000
   241 O1      20.7465   3.5317  39.5428   O         1 RES1   0.0000
   242 C2      20.7465   4.2072  37.2858   C         1 RES1   0.0000
   243 C3      20.7465   3.8452  35.9512   C         1 RES1   0.0000
   244 H1      20.7465   2.9273  35.7068   H         1 RES1   0.0000
   245 C1      20.7465   3.1491  38.3439   C         1 RES1   0.0000
   246 O1      20.7465   1.9502  37.9613   O         1 RES1   0.0000
   247 C3      20.7465   5.5418  37.6478   C         1 RES1   0.0000
   248 H1      20.7465   5.7862  38.5657   H         1 RES1   0.0000
   249 O3      21.7942   1.0477  40.4453   O         1 RES1   0.0000
   250 O1      22.6967   3.5317  41.4930   O         1 RES1   0.0000
   251 C3      26.2883   3.8452  41.4930   C         1 RES1   0.0000
   252 H1      26.5327   2.9273  41.4930   H         1 RES1   0.0000
   253 O1      18.7963   3.5317  41.4930   O         1 RES1   0.0000
   254 C3      15.2047   3.8452  41.4930   C         1 RES1   0.0000
   255 H1      14.9603   2.9273  41.4930   H         1 RES1   0.0000
   256 C3      20.7465   6.5281  36.6616   C         1 RES1   0.0000
   257 C3      20.7465   4.8314  34.9649   C         1 RES1   0.0000
   258 C3      14.2184   4.8314  41.4930   C         1 RES1   0.0000
   259 C3      27.2746   4.8314  41.4930   C         1 RES1   0.0000
   260 C3      25.5779   6.5281  41.4930   C         1 RES1   0.0000
   261 C3      15.9151   6.5281  41.4930   C         1 RES1   0.0000
   262 Zr      20.7465  20.7465   2.4844   Z         1 RES1   0.0000
   263 O1      22.6967  20.7465   3.5317   O         1 RES1   0.0000
   264 C2      24.9537  20.7465   4.2072   C         1 RES1   0.0000
   265 C3      26.2883  20.7465   3.8452   C         1 RES1   0.0000
   266 H1      26.5327  20.7465   2.9273   H         1 RES1   0.0000
   267 O3      19.6988  19.6988   1.0477   O         1 RES1   0.0000
   268 C1      23.8956  20.7465   3.1491   C         1 RES1   0.0000
   269 O1      18.7963  20.7465   3.5317   O         1 RES1   0.0000
   270 C2      16.5393  20.7465   4.2072   C         1 RES1   0.0000
   271 C3      15.2047  20.7465   3.8452   C         1 RES1   0.0000
   272 H1      14.9603  20.7465   2.9273   H         1 RES1   0.0000
   273 O3      21.7942  21.7942   1.0477   O         1 RES1   0.0000
   274 C1      17.5974  20.7465   3.1491   C         1 RES1   0.0000
   275 O1      20.7465  24.2782   1.9502   O         1 RES1   0.0000
   276 C2      20.7465  24.9537   4.2072   C         1 RES1   0.0000
   277 C3      20.7465  24.5917   5.5418   C         1 RES1   0.0000
   278 H1      20.7465  23.6738   5.7862   H         1 RES1   0.0000
   279 C1      20.7465  23.8956   3.1491   C         1 RES1   0.0000
   280 O1      20.7465  17.2148   1.9502   O         1 RES1   0.0000
   281 C2      20.7465  16.5393   4.2072   C         1 RES1   0.0000
   282 C3      20.7465  16.9013   5.5418   C         1 RES1   0.0000
   283 H1      20.7465  17.8192   5.7862   H         1 RES1   0.0000
   284 C1      20.7465  17.5974   3.1491   C         1 RES1   0.0000
   285 O1      20.7465  18.7963   3.5317   O         1 RES1   0.0000
   286 C3      20.7465  15.2047   3.8452   C         1 RES1   0.0000
   287 H1      20.7465  14.9603   2.9273   H         1 RES1   0.0000
   288 O3      19.6988  21.7942   1.0477   O         1 RES1   0.0000
   289 O1      20.7465  22.6967   3.5317   O         1 RES1   0.0000
   290 C3      20.7465  26.2883   3.8452   C         1 RES1   0.0000
   291 H1      20.7465  26.5327   2.9273   H         1 RES1   0.0000
   292 O3      21.7942  19.6988   1.0477   O         1 RES1   0.0000
   293 O1      24.2782  20.7465   1.9502   O         1 RES1   0.0000
   294 C3      24.5917  20.7465   5.5418   C         1 RES1   0.0000
   295 H1      23.6738  20.7465   5.7862   H         1 RES1   0.0000
   296 O1      17.2148  20.7465   1.9502   O         1 RES1   0.0000
   297 C3      16.9013  20.7465   5.5418   C         1 RES1   0.0000
   298 H1      17.8192  20.7465   5.7862   H         1 RES1   0.0000
   299 C3      20.7465  14.2184   4.8314   C         1 RES1   0.0000
   300 C3      20.7465  27.2746   4.8314   C         1 RES1   0.0000
   301 C3      20.7465  15.9151   6.5281   C         1 RES1   0.0000
   302 C3      20.7465  25.5779   6.5281   C         1 RES1   0.0000
   303 C3      25.5779  20.7465   6.5281   C         1 RES1   0.0000
   304 C3      15.9151  20.7465   6.5281   C         1 RES1   0.0000
   305 C3      14.2184  20.7465   4.8314   C         1 RES1   0.0000
   306 C3      27.2746  20.7465   4.8314   C         1 RES1   0.0000
   307 Zr      20.7465  20.7465  23.2309   Z         1 RES1   0.0000
   308 O1      22.6967  20.7465  24.2782   O         1 RES1   0.0000
   309 C2      24.9537  20.7465  24.9537   C         1 RES1   0.0000
   310 C3      26.2883  20.7465  24.5917   C         1 RES1   0.0000
   311 H1      26.5327  20.7465  23.6738   H         1 RES1   0.0000
   312 O3      19.6988  19.6988  21.7942   O         1 RES1   0.0000
   313 C1      23.8956  20.7465  23.8956   C         1 RES1   0.0000
   314 O1      18.7963  20.7465  24.2782   O         1 RES1   0.0000
   315 C2      16.5393  20.7465  24.9537   C         1 RES1   0.0000
   316 C3      15.2047  20.7465  24.5917   C         1 RES1   0.0000
   317 H1      14.9603  20.7465  23.6738   H         1 RES1   0.0000
   318 O3      21.7942  21.7942  21.7942   O         1 RES1   0.0000
   319 C1      17.5974  20.7465  23.8956   C         1 RES1   0.0000
   320 Zr      23.2309  20.7465  20.7465   Z         1 RES1   0.0000
   321 O1      24.2782  22.6967  20.7465   O         1 RES1   0.0000
   322 C2      24.9537  24.9537  20.7465   C         1 RES1   0.0000
   323 C3      24.5917  26.2883  20.7465   C         1 RES1   0.0000
   324 H1      23.6738  26.5327  20.7465   H         1 RES1   0.0000
   325 O3      21.7942  19.6988  19.6988   O         1 RES1   0.0000
   326 C1      23.8956  23.8956  20.7465   C         1 RES1   0.0000
   327 O1      24.2782  18.7963  20.7465   O         1 RES1   0.0000
   328 C2      24.9537  16.5393  20.7465   C         1 RES1   0.0000
   329 C3      24.5917  15.2047  20.7465   C         1 RES1   0.0000
   330 H1      23.6738  14.9603  20.7465   H         1 RES1   0.0000
   331 C1      23.8956  17.5974  20.7465   C         1 RES1   0.0000
   332 Zr      18.2621  20.7465  20.7465   Z         1 RES1   0.0000
   333 O1      17.2148  18.7963  20.7465   O         1 RES1   0.0000
   334 C2      16.5393  16.5393  20.7465   C         1 RES1   0.0000
   335 C3      16.9013  15.2047  20.7465   C         1 RES1   0.0000
   336 H1      17.8192  14.9603  20.7465   H         1 RES1   0.0000
   337 O3      19.6988  21.7942  19.6988   O         1 RES1   0.0000
   338 C1      17.5974  17.5974  20.7465   C         1 RES1   0.0000
   339 O1      17.2148  22.6967  20.7465   O         1 RES1   0.0000
   340 C2      16.5393  24.9537  20.7465   C         1 RES1   0.0000
   341 C3      16.9013  26.2883  20.7465   C         1 RES1   0.0000
   342 H1      17.8192  26.5327  20.7465   H         1 RES1   0.0000
   343 C1      17.5974  23.8956  20.7465   C         1 RES1   0.0000
   344 Zr      20.7465  23.2309  20.7465   Z         1 RES1   0.0000
   345 O1      20.7465  24.2782  22.6967   O         1 RES1   0.0000
   346 C2      20.7465  24.9537  24.9537   C         1 RES1   0.0000
   347 C3      20.7465  24.5917  26.2883   C         1 RES1   0.0000
   348 H1      20.7465  23.6738  26.5327   H         1 RES1   0.0000
   349 C1      20.7465  23.8956  23.8956   C         1 RES1   0.0000
   350 O1      20.7465  24.2782  18.7963   O         1 RES1   0.0000
   351 C2      20.7465  24.9537  16.5393   C         1 RES1   0.0000
   352 C3      20.7465  24.5917  15.2047   C         1 RES1   0.0000
   353 H1      20.7465  23.6738  14.9603   H         1 RES1   0.0000
   354 C1      20.7465  23.8956  17.5974   C         1 RES1   0.0000
   355 Zr      20.7465  18.2621  20.7465   Z         1 RES1   0.0000
   356 O1      20.7465  17.2148  18.7963   O         1 RES1   0.0000
   357 C2      20.7465  16.5393  16.5393   C         1 RES1   0.0000
   358 C3      20.7465  16.9013  15.2047   C         1 RES1   0.0000
   359 H1      20.7465  17.8192  14.9603   H         1 RES1   0.0000
   360 C1      20.7465  17.5974  17.5974   C         1 RES1   0.0000
   361 O1      20.7465  17.2148  22.6967   O         1 RES1   0.0000
   362 C2      20.7465  16.5393  24.9537   C         1 RES1   0.0000
   363 C3      20.7465  16.9013  26.2883   C         1 RES1   0.0000
   364 H1      20.7465  17.8192  26.5327   H         1 RES1   0.0000
   365 C1      20.7465  17.5974  23.8956   C         1 RES1   0.0000
   366 Zr      20.7465  20.7465  18.2621   Z         1 RES1   0.0000
   367 O1      20.7465  22.6967  17.2148   O         1 RES1   0.0000
   368 C3      20.7465  26.2883  16.9013   C         1 RES1   0.0000
   369 H1      20.7465  26.5327  17.8192   H         1 RES1   0.0000
   370 O3      19.6988  19.6988  19.6988   O         1 RES1   0.0000
   371 O1      20.7465  18.7963  17.2148   O         1 RES1   0.0000
   372 C3      20.7465  15.2047  16.9013   C         1 RES1   0.0000
   373 H1      20.7465  14.9603  17.8192   H         1 RES1   0.0000
   374 O3      21.7942  21.7942  19.6988   O         1 RES1   0.0000
   375 O1      20.7465  18.7963  24.2782   O         1 RES1   0.0000
   376 C3      20.7465  15.2047  24.5917   C         1 RES1   0.0000
   377 H1      20.7465  14.9603  23.6738   H         1 RES1   0.0000
   378 O3      19.6988  21.7942  21.7942   O         1 RES1   0.0000
   379 O1      20.7465  22.6967  24.2782   O         1 RES1   0.0000
   380 C3      20.7465  26.2883  24.5917   C         1 RES1   0.0000
   381 H1      20.7465  26.5327  23.6738   H         1 RES1   0.0000
   382 O3      21.7942  19.6988  21.7942   O         1 RES1   0.0000
   383 O1      22.6967  24.2782  20.7465   O         1 RES1   0.0000
   384 C3      26.2883  24.5917  20.7465   C         1 RES1   0.0000
   385 H1      26.5327  23.6738  20.7465   H         1 RES1   0.0000
   386 O1      18.7963  24.2782  20.7465   O         1 RES1   0.0000
   387 C3      15.2047  24.5917  20.7465   C         1 RES1   0.0000
   388 H1      14.9603  23.6738  20.7465   H         1 RES1   0.0000
   389 O1      18.7963  17.2148  20.7465   O         1 RES1   0.0000
   390 C3      15.2047  16.9013  20.7465   C         1 RES1   0.0000
   391 H1      14.9603  17.8192  20.7465   H         1 RES1   0.0000
   392 O1      22.6967  17.2148  20.7465   O         1 RES1   0.0000
   393 C3      26.2883  16.9013  20.7465   C         1 RES1   0.0000
   394 H1      26.5327  17.8192  20.7465   H         1 RES1   0.0000
   395 O1      24.2782  20.7465  18.7963   O         1 RES1   0.0000
   396 C2      24.9537  20.7465  16.5393   C         1 RES1   0.0000
   397 C3      24.5917  20.7465  15.2047   C         1 RES1   0.0000
   398 H1      23.6738  20.7465  14.9603   H         1 RES1   0.0000
   399 C1      23.8956  20.7465  17.5974   C         1 RES1   0.0000
   400 O1      24.2782  20.7465  22.6967   O         1 RES1   0.0000
   401 C3      24.5917  20.7465  26.2883   C         1 RES1   0.0000
   402 H1      23.6738  20.7465  26.5327   H         1 RES1   0.0000
   403 O1      17.2148  20.7465  22.6967   O         1 RES1   0.0000
   404 C3      16.9013  20.7465  26.2883   C         1 RES1   0.0000
   405 H1      17.8192  20.7465  26.5327   H         1 RES1   0.0000
   406 O1      17.2148  20.7465  18.7963   O         1 RES1   0.0000
   407 C2      16.5393  20.7465  16.5393   C         1 RES1   0.0000
   408 C3      16.9013  20.7465  15.2047   C         1 RES1   0.0000
   409 H1      17.8192  20.7465  14.9603   H         1 RES1   0.0000
   410 C1      17.5974  20.7465  17.5974   C         1 RES1   0.0000
   411 O1      18.7963  20.7465  17.2148   O         1 RES1   0.0000
   412 C3      15.2047  20.7465  16.9013   C         1 RES1   0.0000
   413 H1      14.9603  20.7465  17.8192   H         1 RES1   0.0000
   414 O1      22.6967  20.7465  17.2148   O         1 RES1   0.0000
   415 C3      26.2883  20.7465  16.9013   C         1 RES1   0.0000
   416 H1      26.5327  20.7465  17.8192   H         1 RES1   0.0000
   417 C3      20.7465  14.2184  15.9151   C         1 RES1   0.0000
   418 C3      20.7465  14.2184  25.5779   C         1 RES1   0.0000
   419 C3      20.7465  27.2746  25.5779   C         1 RES1   0.0000
   420 C3      20.7465  27.2746  15.9151   C         1 RES1   0.0000
   421 C3      20.7465  15.9151  27.2746   C         1 RES1   0.0000
   422 C3      20.7465  25.5779  27.2746   C         1 RES1   0.0000
   423 C3      20.7465  25.5779  14.2184   C         1 RES1   0.0000
   424 C3      20.7465  15.9151  14.2184   C         1 RES1   0.0000
   425 C3      15.9151  20.7465  14.2184   C         1 RES1   0.0000
   426 C3      25.5779  20.7465  14.2184   C         1 RES1   0.0000
   427 C3      25.5779  20.7465  27.2746   C         1 RES1   0.0000
   428 C3      15.9151  20.7465  27.2746   C         1 RES1   0.0000
   429 C3      14.2184  20.7465  25.5779   C         1 RES1   0.0000
   430 C3      14.2184  20.7465  15.9151   C         1 RES1   0.0000
   431 C3      27.2746  20.7465  15.9151   C         1 RES1   0.0000
   432 C3      27.2746  20.7465  25.5779   C         1 RES1   0.0000
   433 C3      14.2184  15.9151  20.7465   C         1 RES1   0.0000
   434 C3      14.2184  25.5779  20.7465   C         1 RES1   0.0000
   435 C3      27.2746  25.5779  20.7465   C         1 RES1   0.0000
   436 C3      27.2746  15.9151  20.7465   C         1 RES1   0.0000
   437 C3      15.9151  14.2184  20.7465   C         1 RES1   0.0000
   438 C3      25.5779  14.2184  20.7465   C         1 RES1   0.0000
   439 C3      25.5779  27.2746  20.7465   C         1 RES1   0.0000
   440 C3      15.9151  27.2746  20.7465   C         1 RES1   0.0000
   441 Zr      23.2309  20.7465  41.4930   Z         1 RES1   0.0000
   442 O1      24.2782  22.6967  41.4930   O         1 RES1   0.0000
   443 C2      24.9537  24.9537  41.4930   C         1 RES1   0.0000
   444 C3      24.5917  26.2883  41.4930   C         1 RES1   0.0000
   445 H1      23.6738  26.5327  41.4930   H         1 RES1   0.0000
   446 O3      21.7942  19.6988  40.4453   O         1 RES1   0.0000
   447 C1      23.8956  23.8956  41.4930   C         1 RES1   0.0000
   448 O1      24.2782  18.7963  41.4930   O         1 RES1   0.0000
   449 C2      24.9537  16.5393  41.4930   C         1 RES1   0.0000
   450 C3      24.5917  15.2047  41.4930   C         1 RES1   0.0000
   451 H1      23.6738  14.9603  41.4930   H         1 RES1   0.0000
   452 C1      23.8956  17.5974  41.4930   C         1 RES1   0.0000
   453 Zr      18.2621  20.7465  41.4930   Z         1 RES1   0.0000
   454 O1      17.2148  18.7963  41.4930   O         1 RES1   0.0000
   455 C2      16.5393  16.5393  41.4930   C         1 RES1   0.0000
   456 C3      16.9013  15.2047  41.4930   C         1 RES1   0.0000
   457 H1      17.8192  14.9603  41.4930   H         1 RES1   0.0000
   458 O3      19.6988  21.7942  40.4453   O         1 RES1   0.0000
   459 C1      17.5974  17.5974  41.4930   C         1 RES1   0.0000
   460 O1      17.2148  22.6967  41.4930   O         1 RES1   0.0000
   461 C2      16.5393  24.9537  41.4930   C         1 RES1   0.0000
   462 C3      16.9013  26.2883  41.4930   C         1 RES1   0.0000
   463 H1      17.8192  26.5327  41.4930   H         1 RES1   0.0000
   464 C1      17.5974  23.8956  41.4930   C         1 RES1   0.0000
   465 Zr      20.7465  23.2309  41.4930   Z         1 RES1   0.0000
   466 O1      20.7465  24.2782  39.5428   O         1 RES1   0.0000
   467 C2      20.7465  24.9537  37.2858   C         1 RES1   0.0000
   468 C3      20.7465  24.5917  35.9512   C         1 RES1   0.0000
   469 H1      20.7465  23.6738  35.7068   H         1 RES1   0.0000
   470 C1      20.7465  23.8956  38.3439   C         1 RES1   0.0000
   471 Zr      20.7465  18.2621  41.4930   Z         1 RES1   0.0000
   472 O1      20.7465  17.2148  39.5428   O         1 RES1   0.0000
   473 C2      20.7465  16.5393  37.2858   C         1 RES1   0.0000
   474 C3      20.7465  16.9013  35.9512   C         1 RES1   0.0000
   475 H1      20.7465  17.8192  35.7068   H         1 RES1   0.0000
   476 C1      20.7465  17.5974  38.3439   C         1 RES1   0.0000
   477 Zr      20.7465  20.7465  39.0086   Z         1 RES1   0.0000
   478 O1      20.7465  22.6967  37.9613   O         1 RES1   0.0000
   479 C3      20.7465  26.2883  37.6478   C         1 RES1   0.0000
   480 H1      20.7465  26.5327  38.5657   H         1 RES1   0.0000
   481 O3      19.6988  19.6988  40.4453   O         1 RES1   0.0000
   482 O1      20.7465  18.7963  37.9613   O         1 RES1   0.0000
   483 C3      20.7465  15.2047  37.6478   C         1 RES1   0.0000
   484 H1      20.7465  14.9603  38.5657   H         1 RES1   0.0000
   485 O3      21.7942  21.7942  40.4453   O         1 RES1   0.0000
   486 O1      22.6967  24.2782  41.4930   O         1 RES1   0.0000
   487 C3      26.2883  24.5917  41.4930   C         1 RES1   0.0000
   488 H1      26.5327  23.6738  41.4930   H         1 RES1   0.0000
   489 O1      18.7963  24.2782  41.4930   O         1 RES1   0.0000
   490 C3      15.2047  24.5917  41.4930   C         1 RES1   0.0000
   491 H1      14.9603  23.6738  41.4930   H         1 RES1   0.0000
   492 O1      18.7963  17.2148  41.4930   O         1 RES1   0.0000
   493 C3      15.2047  16.9013  41.4930   C         1 RES1   0.0000
   494 H1      14.9603  17.8192  41.4930   H         1 RES1   0.0000
   495 O1      22.6967  17.2148  41.4930   O         1 RES1   0.0000
   496 C3      26.2883  16.9013  41.4930   C         1 RES1   0.0000
   497 H1      26.5327  17.8192  41.4930   H         1 RES1   0.0000
   498 O1      24.2782  20.7465  39.5428   O         1 RES1   0.0000
   499 C2      24.9537  20.7465  37.2858   C         1 RES1   0.0000
   500 C3      24.5917  20.7465  35.9512   C         1 RES1   0.0000
   501 H1      23.6738  20.7465  35.7068   H         1 RES1   0.0000
   502 C1      23.8956  20.7465  38.3439   C         1 RES1   0.0000
   503 O1      17.2148  20.7465  39.5428   O         1 RES1   0.0000
   504 C2      16.5393  20.7465  37.2858   C         1 RES1   0.0000
   505 C3      16.9013  20.7465  35.9512   C         1 RES1   0.0000
   506 H1      17.8192  20.7465  35.7068   H         1 RES1   0.0000
   507 C1      17.5974  20.7465  38.3439   C         1 RES1   0.0000
   508 O1      18.7963  20.7465  37.9613   O         1 RES1   0.0000
   509 C3      15.2047  20.7465  37.6478   C         1 RES1   0.0000
   510 H1      14.9603  20.7465  38.5657   H         1 RES1   0.0000
   511 O1      22.6967  20.7465  37.9613   O         1 RES1   0.0000
   512 C3      26.2883  20.7465  37.6478   C         1 RES1   0.0000
   513 H1      26.5327  20.7465  38.5657   H         1 RES1   0.0000
   514 C3      20.7465  14.2184  36.6616   C         1 RES1   0.0000
   515 C3      20.7465  27.2746  36.6616   C         1 RES1   0.0000
   516 C3      20.7465  25.5779  34.9649   C         1 RES1   0.0000
   517 C3      20.7465  15.9151  34.9649   C         1 RES1   0.0000
   518 C3      15.9151  20.7465  34.9649   C         1 RES1   0.0000
   519 C3      25.5779  20.7465  34.9649   C         1 RES1   0.0000
   520 C3      14.2184  20.7465  36.6616   C         1 RES1   0.0000
   521 C3      27.2746  20.7465  36.6616   C         1 RES1   0.0000
   522 C3      14.2184  15.9151  41.4930   C         1 RES1   0.0000
   523 C3      14.2184  25.5779  41.4930   C         1 RES1   0.0000
   524 C3      27.2746  25.5779  41.4930   C         1 RES1   0.0000
   525 C3      27.2746  15.9151  41.4930   C         1 RES1   0.0000
   526 C3      15.9151  14.2184  41.4930   C         1 RES1   0.0000
   527 C3      25.5779  14.2184  41.4930   C         1 RES1   0.0000
   528 C3      25.5779  27.2746  41.4930   C         1 RES1   0.0000
   529 C3      15.9151  27.2746  41.4930   C         1 RES1   0.0000
   530 Zr      20.7465  41.4930   2.4844   Z         1 RES1   0.0000
   531 O1      22.6967  41.4930   3.5317   O         1 RES1   0.0000
   532 C2      24.9537  41.4930   4.2072   C         1 RES1   0.0000
   533 C3      26.2883  41.4930   3.8452   C         1 RES1   0.0000
   534 H1      26.5327  41.4930   2.9273   H         1 RES1   0.0000
   535 O3      19.6988  40.4453   1.0477   O         1 RES1   0.0000
   536 C1      23.8956  41.4930   3.1491   C         1 RES1   0.0000
   537 O1      18.7963  41.4930   3.5317   O         1 RES1   0.0000
   538 C2      16.5393  41.4930   4.2072   C         1 RES1   0.0000
   539 C3      15.2047  41.4930   3.8452   C         1 RES1   0.0000
   540 H1      14.9603  41.4930   2.9273   H         1 RES1   0.0000
   541 C1      17.5974  41.4930   3.1491   C         1 RES1   0.0000
   542 O1      20.7465  37.9613   1.9502   O         1 RES1   0.0000
   543 C2      20.7465  37.2858   4.2072   C         1 RES1   0.0000
   544 C3      20.7465  37.6478   5.5418   C         1 RES1   0.0000
   545 H1      20.7465  38.5657   5.7862   H         1 RES1   0.0000
   546 C1      20.7465  38.3439   3.1491   C         1 RES1   0.0000
   547 O1      20.7465  39.5428   3.5317   O         1 RES1   0.0000
   548 C3      20.7465  35.9512   3.8452   C         1 RES1   0.0000
   549 H1      20.7465  35.7068   2.9273   H         1 RES1   0.0000
   550 O3      21.7942  40.4453   1.0477   O         1 RES1   0.0000
   551 O1      24.2782  41.4930   1.9502   O         1 RES1   0.0000
   552 C3      24.5917  41.4930   5.5418   C         1 RES1   0.0000
   553 H1      23.6738  41.4930   5.7862   H         1 RES1   0.0000
   554 O1      17.2148  41.4930   1.9502   O         1 RES1   0.0000
   555 C3      16.9013  41.4930   5.5418   C         1 RES1   0.0000
   556 H1      17.8192  41.4930   5.7862   H         1 RES1   0.0000
   557 C3      20.7465  34.9649   4.8314   C         1 RES1   0.0000
   558 C3      20.7465  36.6616   6.5281   C         1 RES1   0.0000
   559 C3      25.5779  41.4930   6.5281   C         1 RES1   0.0000
   560 C3      15.9151  41.4930   6.5281   C         1 RES1   0.0000
   561 C3      14.2184  41.4930   4.8314   C         1 RES1   0.0000
   562 C3      27.2746  41.4930   4.8314   C         1 RES1   0.0000
   563 Zr      20.7465  41.4930  23.2309   Z         1 RES1   0.0000
   564 O1      22.6967  41.4930  24.2782   O         1 RES1   0.0000
   565 C2      24.9537  41.4930  24.9537   C         1 RES1   0.0000
   566 C3      26.2883  41.4930  24.5917   C         1 RES1   0.0000
   567 H1      26.5327  41.4930  23.6738   H         1 RES1   0.0000
   568 O3      19.6988  40.4453  21.7942   O         1 RES1   0.0000
   569 C1      23.8956  41.4930  23.8956   C         1 RES1   0.0000
   570 O1      18.7963  41.4930  24.2782   O         1 RES1   0.0000
   571 C2      16.5393  41.4930  24.9537   C         1 RES1   0.0000
   572 C3      15.2047  41.4930  24.5917   C         1 RES1   0.0000
   573 H1      14.9603  41.4930  23.6738   H         1 RES1   0.0000
   574 C1      17.5974  41.4930  23.8956   C         1 RES1   0.0000
   575 Zr      23.2309  41.4930  20.7465   Z         1 RES1   0.0000
   576 O3      21.7942  40.4453  19.6988   O         1 RES1   0.0000
   577 O1      24.2782  39.5428  20.7465   O         1 RES1   0.0000
   578 C2      24.9537  37.2858  20.7465   C         1 RES1   0.0000
   579 C3      24.5917  35.9512  20.7465   C         1 RES1   0.0000
   580 H1      23.6738  35.7068  20.7465   H         1 RES1   0.0000
   581 C1      23.8956  38.3439  20.7465   C         1 RES1   0.0000
   582 Zr      18.2621  41.4930  20.7465   Z         1 RES1   0.0000
   583 O1      17.2148  39.5428  20.7465   O         1 RES1   0.0000
   584 C2      16.5393  37.2858  20.7465   C         1 RES1   0.0000
   585 C3      16.9013  35.9512  20.7465   C         1 RES1   0.0000
   586 H1      17.8192  35.7068  20.7465   H         1 RES1   0.0000
   587 C1      17.5974  38.3439  20.7465   C         1 RES1   0.0000
   588 Zr      20.7465  39.0086  20.7465   Z         1 RES1   0.0000
   589 O1      20.7465  37.9613  18.7963   O         1 RES1   0.0000
   590 C2      20.7465  37.2858  16.5393   C         1 RES1   0.0000
   591 C3      20.7465  37.6478  15.2047   C         1 RES1   0.0000
   592 H1      20.7465  38.5657  14.9603   H         1 RES1   0.0000
   593 C1      20.7465  38.3439  17.5974   C         1 RES1   0.0000
   594 O1      20.7465  37.9613  22.6967   O         1 RES1   0.0000
   595 C2      20.7465  37.2858  24.9537   C         1 RES1   0.0000
   596 C3      20.7465  37.6478  26.2883   C         1 RES1   0.0000
   597 H1      20.7465  38.5657  26.5327   H         1 RES1   0.0000
   598 C1      20.7465  38.3439  23.8956   C         1 RES1   0.0000
   599 Zr      20.7465  41.4930  18.2621   Z         1 RES1   0.0000
   600 O3      19.6988  40.4453  19.6988   O         1 RES1   0.0000
   601 O1      20.7465  39.5428  17.2148   O         1 RES1   0.0000
   602 C3      20.7465  35.9512  16.9013   C         1 RES1   0.0000
   603 H1      20.7465  35.7068  17.8192   H         1 RES1   0.0000
   604 O1      20.7465  39.5428  24.2782   O         1 RES1   0.0000
   605 C3      20.7465  35.9512  24.5917   C         1 RES1   0.0000
   606 H1      20.7465  35.7068  23.6738   H         1 RES1   0.0000
   607 O3      21.7942  40.4453  21.7942   O         1 RES1   0.0000
   608 O1      18.7963  37.9613  20.7465   O         1 RES1   0.0000
   609 C3      15.2047  37.6478  20.7465   C         1 RES1   0.0000
   610 H1      14.9603  38.5657  20.7465   H         1 RES1   0.0000
   611 O1      22.6967  37.9613  20.7465   O         1 RES1   0.0000
   612 C3      26.2883  37.6478  20.7465   C         1 RES1   0.0000
   613 H1      26.5327  38.5657  20.7465   H         1 RES1   0.0000
   614 O1      24.2782  41.4930  18.7963   O         1 RES1   0.0000
   615 C2      24.9537  41.4930  16.5393   C         1 RES1   0.0000
   616 C3      24.5917  41.4930  15.2047   C         1 RES1   0.0000
   617 H1      23.6738  41.4930  14.9603   H         1 RES1   0.0000
   618 C1      23.8956  41.4930  17.5974   C         1 RES1   0.0000
   619 O1      24.2782  41.4930  22.6967   O         1 RES1   0.0000
   620 C3      24.5917  41.4930  26.2883   C         1 RES1   0.0000
   621 H1      23.6738  41.4930  26.5327   H         1 RES1   0.0000
   622 O1      17.2148  41.4930  22.6967   O         1 RES1   0.0000
   623 C3      16.9013  41.4930  26.2883   C         1 RES1   0.0000
   624 H1      17.8192  41.4930  26.5327   H         1 RES1   0.0000
   625 O1      17.2148  41.4930  18.7963   O         1 RES1   0.0000
   626 C2      16.5393  41.4930  16.5393   C         1 RES1   0.0000
   627 C3      16.9013  41.4930  15.2047   C         1 RES1   0.0000
   628 H1      17.8192  41.4930  14.9603   H         1 RES1   0.0000
   629 C1      17.5974  41.4930  17.5974   C         1 RES1   0.0000
   630 O1      18.7963  41.4930  17.2148   O         1 RES1   0.0000
   631 C3      15.2047  41.4930  16.9013   C         1 RES1   0.0000
   632 H1      14.9603  41.4930  17.8192   H         1 RES1   0.0000
   633 O1      22.6967  41.4930  17.2148   O         1 RES1   0.0000
   634 C3      26.2883  41.4930  16.9013   C         1 RES1   0.0000
   635 H1      26.5327  41.4930  17.8192   H         1 RES1   0.0000
   636 C3      20.7465  34.9649  15.9151   C         1 RES1   0.0000
   637 C3      20.7465  34.9649  25.5779   C         1 RES1   0.0000
   638 C3      20.7465  36.6616  27.2746   C         1 RES1   0.0000
   639 C3      20.7465  36.6616  14.2184   C         1 RES1   0.0000
   640 C3      15.9151  41.4930  14.2184   C         1 RES1   0.0000
   641 C3      25.5779  41.4930  14.2184   C         1 RES1   0.0000
   642 C3      25.5779  41.4930  27.2746   C         1 RES1   0.0000
   643 C3      15.9151  41.4930  27.2746   C         1 RES1   0.0000
   644 C3      14.2184  41.4930  25.5779   C         1 RES1   0.0000
   645 C3      14.2184  41.4930  15.9151   C         1 RES1   0.0000
   646 C3      27.2746  41.4930  15.9151   C         1 RES1   0.0000
   647 C3      27.2746  41.4930  25.5779   C         1 RES1   0.0000
   648 C3      14.2184  36.6616  20.7465   C         1 RES1   0.0000
   649 C3      27.2746  36.6616  20.7465   C         1 RES1   0.0000
   650 C3      15.9151  34.9649  20.7465   C         1 RES1   0.0000
   651 C3      25.5779  34.9649  20.7465   C         1 RES1   0.0000
   652 Zr      23.2309  41.4930  41.4930   Z         1 RES1   0.0000
   653 O3      21.7942  40.4453  40.4453   O         1 RES1   0.0000
   654 O1      24.2782  39.5428  41.4930   O         1 RES1   0.0000
   655 C2      24.9537  37.2858  41.4930   C         1 RES1   0.0000
   656 C3      24.5917  35.9512  41.4930   C         1 RES1   0.0000
   657 H1      23.6738  35.7068  41.4930   H         1 RES1   0.0000
   658 C1      23.8956  38.3439  41.4930   C         1 RES1   0.0000
   659 Zr      18.2621  41.4930  41.4930   Z         1 RES1   0.0000
   660 O1      17.2148  39.5428  41.4930   O         1 RES1   0.0000
   661 C2      16.5393  37.2858  41.4930   C         1 RES1   0.0000
   662 C3      16.9013  35.9512  41.4930   C         1 RES1   0.0000
   663 H1      17.8192  35.7068  41.4930   H         1 RES1   0.0000
   664 C1      17.5974  38.3439  41.4930   C         1 RES1   0.0000
   665 Zr      20.7465  39.0086  41.4930   Z         1 RES1   0.0000
   666 O1      20.7465  37.9613  39.5428   O         1 RES1   0.0000
   667 C2      20.7465  37.2858  37.2858   C         1 RES1   0.0000
   668 C3      20.7465  37.6478  35.9512   C         1 RES1   0.0000
   669 H1      20.7465  38.5657  35.7068   H         1 RES1   0.0000
   670 C1      20.7465  38.3439  38.3439   C         1 RES1   0.0000
   671 Zr      20.7465  41.4930  39.0086   Z         1 RES1   0.0000
   672 O3      19.6988  40.4453  40.4453   O         1 RES1   0.0000
   673 O1      20.7465  39.5428  37.9613   O         1 RES1   0.0000
   674 C3      20.7465  35.9512  37.6478   C         1 RES1   0.0000
   675 H1      20.7465  35.7068  38.5657   H         1 RES1   0.0000
   676 O1      18.7963  37.9613  41.4930   O         1 RES1   0.0000
   677 C3      15.2047  37.6478  41.4930   C         1 RES1   0.0000
   678 H1      14.9603  38.5657  41.4930   H         1 RES1   0.0000
   679 O1      22.6967  37.9613  41.4930   O         1 RES1   0.0000
   680 C3      26.2883  37.6478  41.4930   C         1 RES1   0.0000
   681 H1      26.5327  38.5657  41.4930   H         1 RES1   0.0000
   682 O1      24.2782  41.4930  39.5428   O         1 RES1   0.0000
   683 C2      24.9537  41.4930  37.2858   C         1 RES1   0.0000
   684 C3      24.5917  41.4930  35.9512   C         1 RES1   0.0000
   685 H1      23.6738  41.4930  35.7068   H         1 RES1   0.0000
   686 C1      23.8956  41.4930  38.3439   C         1 RES1   0.0000
   687 O1      17.2148  41.4930  39.5428   O         1 RES1   0.0000
   688 C2      16.5393  41.4930  37.2858   C         1 RES1   0.0000
   689 C3      16.9013  41.4930  35.9512   C         1 RES1   0.0000
   690 H1      17.8192  41.4930  35.7068   H         1 RES1   0.0000
   691 C1      17.5974  41.4930  38.3439   C         1 RES1   0.0000
   692 O1      18.7963  41.4930  37.9613   O         1 RES1   0.0000
   693 C3      15.2047  41.4930  37.6478   C         1 RES1   0.0000
   694 H1      14.9603  41.4930  38.5657   H         1 RES1   0.0000
   695 O1      22.6967  41.4930  37.9613   O         1 RES1   0.0000
   696 C3      26.2883  41.4930  37.6478   C         1 RES1   0.0000
   697 H1      26.5327  41.4930  38.5657   H         1 RES1   0.0000
   698 C3      20.7465  34.9649  36.6616   C         1 RES1   0.0000
   699 C3      20.7465  36.6616  34.9649   C         1 RES1   0.0000
   700 C3      15.9151  41.4930  34.9649   C         1 RES1   0.0000
   701 C3      25.5779  41.4930  34.9649   C         1 RES1   0.0000
   702 C3      14.2184  41.4930  36.6616   C         1 RES1   0.0000
   703 C3      27.2746  41.4930  36.6616   C         1 RES1   0.0000
   704 C3      14.2184  36.6616  41.4930   C         1 RES1   0.0000
   705 C3      27.2746  36.6616  41.4930   C         1 RES1   0.0000
   706 C3      15.9151  34.9649  41.4930   C         1 RES1   0.0000
   707 C3      25.5779  34.9649  41.4930   C         1 RES1   0.0000
   708 O1      41.4930   3.5317   1.9502   O         1 RES1   0.0000
   709 C2      41.4930   4.2072   4.2072   C         1 RES1   0.0000
   710 C3      41.4930   3.8452   5.5418   C         1 RES1   0.0000
   711 H1      41.4930   2.9273   5.7862   H         1 RES1   0.0000
   712 C1      41.4930   3.1491   3.1491   C         1 RES1   0.0000
   713 O1      41.4930   1.9502   3.5317   O         1 RES1   0.0000
   714 C3      41.4930   5.5418   3.8452   C         1 RES1   0.0000
   715 H1      41.4930   5.7862   2.9273   H         1 RES1   0.0000
   716 C3      41.4930   6.5281   4.8314   C         1 RES1   0.0000
   717 C3      41.4930   4.8314   6.5281   C         1 RES1   0.0000
   718 O3      40.4453   1.0477  19.6988   O         1 RES1   0.0000
   719 O1      37.9613   1.9502  20.7465   O         1 RES1   0.0000
   720 C2      37.2858   4.2072  20.7465   C         1 RES1   0.0000
   721 C3      37.6478   5.5418  20.7465   C         1 RES1   0.0000
   722 H1      38.5657   5.7862  20.7465   H         1 RES1   0.0000
   723 C1      38.3439   3.1491  20.7465   C         1 RES1   0.0000
   724 Zr      41.4930   2.4844  20.7465   Z         1 RES1   0.0000
   725 O1      41.4930   3.5317  22.6967   O         1 RES1   0.0000
   726 C2      41.4930   4.2072  24.9537   C         1 RES1   0.0000
   727 C3      41.4930   3.8452  26.2883   C         1 RES1   0.0000
   728 H1      41.4930   2.9273  26.5327   H         1 RES1   0.0000
   729 C1      41.4930   3.1491  23.8956   C         1 RES1   0.0000
   730 O1      41.4930   3.5317  18.7963   O         1 RES1   0.0000
   731 C2      41.4930   4.2072  16.5393   C         1 RES1   0.0000
   732 C3      41.4930   3.8452  15.2047   C         1 RES1   0.0000
   733 H1      41.4930   2.9273  14.9603   H         1 RES1   0.0000
   734 C1      41.4930   3.1491  17.5974   C         1 RES1   0.0000
   735 O1      41.4930   1.9502  17.2148   O         1 RES1   0.0000
   736 C3      41.4930   5.5418  16.9013   C         1 RES1   0.0000
   737 H1      41.4930   5.7862  17.8192   H         1 RES1   0.0000
   738 O3      40.4453   1.0477  21.7942   O         1 RES1   0.0000
   739 O1      41.4930   1.9502  24.2782   O         1 RES1   0.0000
   740 C3      41.4930   5.5418  24.5917   C         1 RES1   0.0000
   741 H1      41.4930   5.7862  23.6738   H         1 RES1   0.0000
   742 O1      39.5428   3.5317  20.7465   O         1 RES1   0.0000
   743 C3      35.9512   3.8452  20.7465   C         1 RES1   0.0000
   744 H1      35.7068   2.9273  20.7465   H         1 RES1   0.0000
   745 C3      41.4930   6.5281  25.5779   C         1 RES1   0.0000
   746 C3      41.4930   6.5281  15.9151   C         1 RES1   0.0000
   747 C3      41.4930   4.8314  27.2746   C         1 RES1   0.0000
   748 C3      41.4930   4.8314  14.2184   C         1 RES1   0.0000
   749 C3      34.9649   4.8314  20.7465   C         1 RES1   0.0000
   750 C3      36.6616   6.5281  20.7465   C         1 RES1   0.0000
   751 O3      40.4453   1.0477  40.4453   O         1 RES1   0.0000
   752 O1      37.9613   1.9502  41.4930   O         1 RES1   0.0000
   753 C2      37.2858   4.2072  41.4930   C         1 RES1   0.0000
   754 C3      37.6478   5.5418  41.4930   C         1 RES1   0.0000
   755 H1      38.5657   5.7862  41.4930   H         1 RES1   0.0000
   756 C1      38.3439   3.1491  41.4930   C         1 RES1   0.0000
   757 Zr      41.4930   2.4844  41.4930   Z         1 RES1   0.0000
   758 O1      41.4930   3.5317  39.5428   O         1 RES1   0.0000
   759 C2      41.4930   4.2072  37.2858   C         1 RES1   0.0000
   760 C3      41.4930   3.8452  35.9512   C         1 RES1   0.0000
   761 H1      41.4930   2.9273  35.7068   H         1 RES1   0.0000
   762 C1      41.4930   3.1491  38.3439   C         1 RES1   0.0000
   763 O1      41.4930   1.9502  37.9613   O         1 RES1   0.0000
   764 C3      41.4930   5.5418  37.6478   C         1 RES1   0.0000
   765 H1      41.4930   5.7862  38.5657   H         1 RES1   0.0000
   766 O1      39.5428   3.5317  41.4930   O         1 RES1   0.0000
   767 C3      35.9512   3.8452  41.4930   C         1 RES1   0.0000
   768 H1      35.7068   2.9273  41.4930   H         1 RES1   0.0000
   769 C3      41.4930   6.5281  36.6616   C         1 RES1   0.0000
   770 C3      41.4930   4.8314  34.9649   C         1 RES1   0.0000
   771 C3      34.9649   4.8314  41.4930   C         1 RES1   0.0000
   772 C3      36.6616   6.5281  41.4930   C         1 RES1   0.0000
   773 Zr      41.4930  20.7465   2.4844   Z         1 RES1   0.0000
   774 O3      40.4453  19.6988   1.0477   O         1 RES1   0.0000
   775 O1      39.5428  20.7465   3.5317   O         1 RES1   0.0000
   776 C2      37.2858  20.7465   4.2072   C         1 RES1   0.0000
   777 C3      35.9512  20.7465   3.8452   C         1 RES1   0.0000
   778 H1      35.7068  20.7465   2.9273   H         1 RES1   0.0000
   779 C1      38.3439  20.7465   3.1491   C         1 RES1   0.0000
   780 O1      41.4930  24.2782   1.9502   O         1 RES1   0.0000
   781 C2      41.4930  24.9537   4.2072   C         1 RES1   0.0000
   782 C3      41.4930  24.5917   5.5418   C         1 RES1   0.0000
   783 H1      41.4930  23.6738   5.7862   H         1 RES1   0.0000
   784 C1      41.4930  23.8956   3.1491   C         1 RES1   0.0000
   785 O1      41.4930  17.2148   1.9502   O         1 RES1   0.0000
   786 C2      41.4930  16.5393   4.2072   C         1 RES1   0.0000
   787 C3      41.4930  16.9013   5.5418   C         1 RES1   0.0000
   788 H1      41.4930  17.8192   5.7862   H         1 RES1   0.0000
   789 C1      41.4930  17.5974   3.1491   C         1 RES1   0.0000
   790 O1      41.4930  18.7963   3.5317   O         1 RES1   0.0000
   791 C3      41.4930  15.2047   3.8452   C         1 RES1   0.0000
   792 H1      41.4930  14.9603   2.9273   H         1 RES1   0.0000
   793 O3      40.4453  21.7942   1.0477   O         1 RES1   0.0000
   794 O1      41.4930  22.6967   3.5317   O         1 RES1   0.0000
   795 C3      41.4930  26.2883   3.8452   C         1 RES1   0.0000
   796 H1      41.4930  26.5327   2.9273   H         1 RES1   0.0000
   797 O1      37.9613  20.7465   1.9502   O         1 RES1   0.0000
   798 C3      37.6478  20.7465   5.5418   C         1 RES1   0.0000
   799 H1      38.5657  20.7465   5.7862   H         1 RES1   0.0000
   800 C3      41.4930  14.2184   4.8314   C         1 RES1   0.0000
   801 C3      41.4930  27.2746   4.8314   C         1 RES1   0.0000
   802 C3      41.4930  15.9151   6.5281   C         1 RES1   0.0000
   803 C3      41.4930  25.5779   6.5281   C         1 RES1   0.0000
   804 C3      36.6616  20.7465   6.5281   C         1 RES1   0.0000
   805 C3      34.9649  20.7465   4.8314   C         1 RES1   0.0000
   806 Zr      41.4930  20.7465  23.2309   Z         1 RES1   0.0000
   807 O3      40.4453  19.6988  21.7942   O         1 RES1   0.0000
   808 O1      39.5428  20.7465  24.2782   O         1 RES1   0.0000
   809 C2      37.2858  20.7465  24.9537   C         1 RES1   0.0000
   810 C3      35.9512  20.7465  24.5917   C         1 RES1   0.0000
   811 H1      35.7068  20.7465  23.6738   H         1 RES1   0.0000
   812 C1      38.3439  20.7465  23.8956   C         1 RES1   0.0000
   813 Zr      39.0086  20.7465  20.7465   Z         1 RES1   0.0000
   814 O1      37.9613  18.7963  20.7465   O         1 RES1   0.0000
   815 C2      37.2858  16.5393  20.7465   C         1 RES1   0.0000
   816 C3      37.6478  15.2047  20.7465   C         1 RES1   0.0000
   817 H1      38.5657  14.9603  20.7465   H         1 RES1   0.0000
   818 O3      40.4453  21.7942  19.6988   O         1 RES1   0.0000
   819 C1      38.3439  17.5974  20.7465   C         1 RES1   0.0000
   820 O1      37.9613  22.6967  20.7465   O         1 RES1   0.0000
   821 C2      37.2858  24.9537  20.7465   C         1 RES1   0.0000
   822 C3      37.6478  26.2883  20.7465   C         1 RES1   0.0000
   823 H1      38.5657  26.5327  20.7465   H         1 RES1   0.0000
   824 C1      38.3439  23.8956  20.7465   C         1 RES1   0.0000
   825 Zr      41.4930  23.2309  20.7465   Z         1 RES1   0.0000
   826 O1      41.4930  24.2782  22.6967   O         1 RES1   0.0000
   827 C2      41.4930  24.9537  24.9537   C         1 RES1   0.0000
   828 C3      41.4930  24.5917  26.2883   C         1 RES1   0.0000
   829 H1      41.4930  23.6738  26.5327   H         1 RES1   0.0000
   830 C1      41.4930  23.8956  23.8956   C         1 RES1   0.0000
   831 O1      41.4930  24.2782  18.7963   O         1 RES1   0.0000
   832 C2      41.4930  24.9537  16.5393   C         1 RES1   0.0000
   833 C3      41.4930  24.5917  15.2047   C         1 RES1   0.0000
   834 H1      41.4930  23.6738  14.9603   H         1 RES1   0.0000
   835 C1      41.4930  23.8956  17.5974   C         1 RES1   0.0000
   836 Zr      41.4930  18.2621  20.7465   Z         1 RES1   0.0000
   837 O1      41.4930  17.2148  18.7963   O         1 RES1   0.0000
   838 C2      41.4930  16.5393  16.5393   C         1 RES1   0.0000
   839 C3      41.4930  16.9013  15.2047   C         1 RES1   0.0000
   840 H1      41.4930  17.8192  14.9603   H         1 RES1   0.0000
   841 C1      41.4930  17.5974  17.5974   C         1 RES1   0.0000
   842 O1      41.4930  17.2148  22.6967   O         1 RES1   0.0000
   843 C2      41.4930  16.5393  24.9537   C         1 RES1   0.0000
   844 C3      41.4930  16.9013  26.2883   C         1 RES1   0.0000
   845 H1      41.4930  17.8192  26.5327   H         1 RES1   0.0000
   846 C1      41.4930  17.5974  23.8956   C         1 RES1   0.0000
   847 Zr      41.4930  20.7465  18.2621   Z         1 RES1   0.0000
   848 O1      41.4930  22.6967  17.2148   O         1 RES1   0.0000
   849 C3      41.4930  26.2883  16.9013   C         1 RES1   0.0000
   850 H1      41.4930  26.5327  17.8192   H         1 RES1   0.0000
   851 O3      40.4453  19.6988  19.6988   O         1 RES1   0.0000
   852 O1      41.4930  18.7963  17.2148   O         1 RES1   0.0000
   853 C3      41.4930  15.2047  16.9013   C         1 RES1   0.0000
   854 H1      41.4930  14.9603  17.8192   H         1 RES1   0.0000
   855 O1      41.4930  18.7963  24.2782   O         1 RES1   0.0000
   856 C3      41.4930  15.2047  24.5917   C         1 RES1   0.0000
   857 H1      41.4930  14.9603  23.6738   H         1 RES1   0.0000
   858 O3      40.4453  21.7942  21.7942   O         1 RES1   0.0000
   859 O1      41.4930  22.6967  24.2782   O         1 RES1   0.0000
   860 C3      41.4930  26.2883  24.5917   C         1 RES1   0.0000
   861 H1      41.4930  26.5327  23.6738   H         1 RES1   0.0000
   862 O1      39.5428  24.2782  20.7465   O         1 RES1   0.0000
   863 C3      35.9512  24.5917  20.7465   C         1 RES1   0.0000
   864 H1      35.7068  23.6738  20.7465   H         1 RES1   0.0000
   865 O1      39.5428  17.2148  20.7465   O         1 RES1   0.0000
   866 C3      35.9512  16.9013  20.7465   C         1 RES1   0.0000
   867 H1      35.7068  17.8192  20.7465   H         1 RES1   0.0000
   868 O1      37.9613  20.7465  22.6967   O         1 RES1   0.0000
   869 C3      37.6478  20.7465  26.2883   C         1 RES1   0.0000
   870 H1      38.5657  20.7465  26.5327   H         1 RES1   0.0000
   871 O1      37.9613  20.7465  18.7963   O         1 RES1   0.0000
   872 C2      37.2858  20.7465  16.5393   C         1 RES1   0.0000
   873 C3      37.6478  20.7465  15.2047   C         1 RES1   0.0000
   874 H1      38.5657  20.7465  14.9603   H         1 RES1   0.0000
   875 C1      38.3439  20.7465  17.5974   C         1 RES1   0.0000
   876 O1      39.5428  20.7465  17.2148   O         1 RES1   0.0000
   877 C3      35.9512  20.7465  16.9013   C         1 RES1   0.0000
   878 H1      35.7068  20.7465  17.8192   H         1 RES1   0.0000
   879 C3      41.4930  14.2184  15.9151   C         1 RES1   0.0000
   880 C3      41.4930  14.2184  25.5779   C         1 RES1   0.0000
   881 C3      41.4930  27.2746  25.5779   C         1 RES1   0.0000
   882 C3      41.4930  27.2746  15.9151   C         1 RES1   0.0000
   883 C3      41.4930  15.9151  27.2746   C         1 RES1   0.0000
   884 C3      41.4930  25.5779  27.2746   C         1 RES1   0.0000
   885 C3      41.4930  25.5779  14.2184   C         1 RES1   0.0000
   886 C3      41.4930  15.9151  14.2184   C         1 RES1   0.0000
   887 C3      36.6616  20.7465  14.2184   C         1 RES1   0.0000
   888 C3      36.6616  20.7465  27.2746   C         1 RES1   0.0000
   889 C3      34.9649  20.7465  25.5779   C         1 RES1   0.0000
   890 C3      34.9649  20.7465  15.9151   C         1 RES1   0.0000
   891 C3      34.9649  15.9151  20.7465   C         1 RES1   0.0000
   892 C3      34.9649  25.5779  20.7465   C         1 RES1   0.0000
   893 C3      36.6616  14.2184  20.7465   C         1 RES1   0.0000
   894 C3      36.6616  27.2746  20.7465   C         1 RES1   0.0000
   895 Zr      39.0086  20.7465  41.4930   Z         1 RES1   0.0000
   896 O1      37.9613  18.7963  41.4930   O         1 RES1   0.0000
   897 C2      37.2858  16.5393  41.4930   C         1 RES1   0.0000
   898 C3      37.6478  15.2047  41.4930   C         1 RES1   0.0000
   899 H1      38.5657  14.9603  41.4930   H         1 RES1   0.0000
   900 O3      40.4453  21.7942  40.4453   O         1 RES1   0.0000
   901 C1      38.3439  17.5974  41.4930   C         1 RES1   0.0000
   902 O1      37.9613  22.6967  41.4930   O         1 RES1   0.0000
   903 C2      37.2858  24.9537  41.4930   C         1 RES1   0.0000
   904 C3      37.6478  26.2883  41.4930   C         1 RES1   0.0000
   905 H1      38.5657  26.5327  41.4930   H         1 RES1   0.0000
   906 C1      38.3439  23.8956  41.4930   C         1 RES1   0.0000
   907 Zr      41.4930  23.2309  41.4930   Z         1 RES1   0.0000
   908 O1      41.4930  24.2782  39.5428   O         1 RES1   0.0000
   909 C2      41.4930  24.9537  37.2858   C         1 RES1   0.0000
   910 C3      41.4930  24.5917  35.9512   C         1 RES1   0.0000
   911 H1      41.4930  23.6738  35.7068   H         1 RES1   0.0000
   912 C1      41.4930  23.8956  38.3439   C         1 RES1   0.0000
   913 Zr      41.4930  18.2621  41.4930   Z         1 RES1   0.0000
   914 O1      41.4930  17.2148  39.5428   O         1 RES1   0.0000
   915 C2      41.4930  16.5393  37.2858   C         1 RES1   0.0000
   916 C3      41.4930  16.9013  35.9512   C         1 RES1   0.0000
   917 H1      41.4930  17.8192  35.7068   H         1 RES1   0.0000
   918 C1      41.4930  17.5974  38.3439   C         1 RES1   0.0000
   919 Zr      41.4930  20.7465  39.0086   Z         1 RES1   0.0000
   920 O1      41.4930  22.6967  37.9613   O         1 RES1   0.0000
   921 C3      41.4930  26.2883  37.6478   C         1 RES1   0.0000
   922 H1      41.4930  26.5327  38.5657   H         1 RES1   0.0000
   923 O3      40.4453  19.6988  40.4453   O         1 RES1   0.0000
   924 O1      41.4930  18.7963  37.9613   O         1 RES1   0.0000
   925 C3      41.4930  15.2047  37.6478   C         1 RES1   0.0000
   926 H1      41.4930  14.9603  38.5657   H         1 RES1   0.0000
   927 O1      39.5428  24.2782  41.4930   O         1 RES1   0.0000
   928 C3      35.9512  24.5917  41.4930   C         1 RES1   0.0000
   929 H1      35.7068  23.6738  41.4930   H         1 RES1   0.0000
   930 O1      39.5428  17.2148  41.4930   O         1 RES1   0.0000
   931 C3      35.9512  16.9013  41.4930   C         1 RES1   0.0000
   932 H1      35.7068  17.8192  41.4930   H         1 RES1   0.0000
   933 O1      37.9613  20.7465  39.5428   O         1 RES1   0.0000
   934 C2      37.2858  20.7465  37.2858   C         1 RES1   0.0000
   935 C3      37.6478  20.7465  35.9512   C         1 RES1   0.0000
   936 H1      38.5657  20.7465  35.7068   H         1 RES1   0.0000
   937 C1      38.3439  20.7465  38.3439   C         1 RES1   0.0000
   938 O1      39.5428  20.7465  37.9613   O         1 RES1   0.0000
   939 C3      35.9512  20.7465  37.6478   C         1 RES1   0.0000
   940 H1      35.7068  20.7465  38.5657   H         1 RES1   0.0000
   941 C3      41.4930  14.2184  36.6616   C         1 RES1   0.0000
   942 C3      41.4930  27.2746  36.6616   C         1 RES1   0.0000
   943 C3      41.4930  25.5779  34.9649   C         1 RES1   0.0000
   944 C3      41.4930  15.9151  34.9649   C         1 RES1   0.0000
   945 C3      36.6616  20.7465  34.9649   C         1 RES1   0.0000
   946 C3      34.9649  20.7465  36.6616   C         1 RES1   0.0000
   947 C3      34.9649  15.9151  41.4930   C         1 RES1   0.0000
   948 C3      34.9649  25.5779  41.4930   C         1 RES1   0.0000
   949 C3      36.6616  14.2184  41.4930   C         1 RES1   0.0000
   950 C3      36.6616  27.2746  41.4930   C         1 RES1   0.0000
   951 Zr      41.4930  41.4930   2.4844   Z         1 RES1   0.0000
   952 O3      40.4453  40.4453   1.0477   O         1 RES1   0.0000
   953 O1      39.5428  41.4930   3.5317   O         1 RES1   0.0000
   954 C2      37.2858  41.4930   4.2072   C         1 RES1   0.0000
   955 C3      35.9512  41.4930   3.8452   C         1 RES1   0.0000
   956 H1      35.7068  41.4930   2.9273   H         1 RES1   0.0000
   957 C1      38.3439  41.4930   3.1491   C         1 RES1   0.0000
   958 O1      41.4930  37.9613   1.9502   O         1 RES1   0.0000
   959 C2      41.4930  37.2858   4.2072   C         1 RES1   0.0000
   960 C3      41.4930  37.6478   5.5418   C         1 RES1   0.0000
   961 H1      41.4930  38.5657   5.7862   H         1 RES1   0.0000
   962 C1      41.4930  38.3439   3.1491   C         1 RES1   0.0000
   963 O1      41.4930  39.5428   3.5317   O         1 RES1   0.0000
   964 C3      41.4930  35.9512   3.8452   C         1 RES1   0.0000
   965 H1      41.4930  35.7068   2.9273   H         1 RES1   0.0000
   966 O1      37.9613  41.4930   1.9502   O         1 RES1   0.0000
   967 C3      37.6478  41.4930   5.5418   C         1 RES1   0.0000
   968 H1      38.5657  41.4930   5.7862   H         1 RES1   0.0000
   969 C3      41.4930  34.9649   4.8314   C         1 RES1   0.0000
   970 C3      41.4930  36.6616   6.5281   C         1 RES1   0.0000
   971 C3      36.6616  41.4930   6.5281   C         1 RES1   0.0000
   972 C3      34.9649  41.4930   4.8314   C         1 RES1   0.0000
   973 Zr      41.4930  41.4930  23.2309   Z         1 RES1   0.0000
   974 O3      40.4453  40.4453  21.7942   O         1 RES1   0.0000
   975 O1      39.5428  41.4930  24.2782   O         1 RES1   0.0000
   976 C2      37.2858  41.4930  24.9537   C         1 RES1   0.0000
   977 C3      35.9512  41.4930  24.5917   C         1 RES1   0.0000
   978 H1      35.7068  41.4930  23.6738   H         1 RES1   0.0000
   979 C1      38.3439  41.4930  23.8956   C         1 RES1   0.0000
   980 Zr      39.0086  41.4930  20.7465   Z         1 RES1   0.0000
   981 O1      37.9613  39.5428  20.7465   O         1 RES1   0.0000
   982 C2      37.2858  37.2858  20.7465   C         1 RES1   0.0000
   983 C3      37.6478  35.9512  20.7465   C         1 RES1   0.0000
   984 H1      38.5657  35.7068  20.7465   H         1 RES1   0.0000
   985 C1      38.3439  38.3439  20.7465   C         1 RES1   0.0000
   986 Zr      41.4930  39.0086  20.7465   Z         1 RES1   0.0000
   987 O1      41.4930  37.9613  18.7963   O         1 RES1   0.0000
   988 C2      41.4930  37.2858  16.5393   C         1 RES1   0.0000
   989 C3      41.4930  37.6478  15.2047   C         1 RES1   0.0000
   990 H1      41.4930  38.5657  14.9603   H         1 RES1   0.0000
   991 C1      41.4930  38.3439  17.5974   C         1 RES1   0.0000
   992 O1      41.4930  37.9613  22.6967   O         1 RES1   0.0000
   993 C2      41.4930  37.2858  24.9537   C         1 RES1   0.0000
   994 C3      41.4930  37.6478  26.2883   C         1 RES1   0.0000
   995 H1      41.4930  38.5657  26.5327   H         1 RES1   0.0000
   996 C1      41.4930  38.3439  23.8956   C         1 RES1   0.0000
   997 Zr      41.4930  41.4930  18.2621   Z         1 RES1   0.0000
   998 O3      40.4453  40.4453  19.6988   O         1 RES1   0.0000
   999 O1      41.4930  39.5428  17.2148   O         1 RES1   0.0000
  1000 C3      41.4930  35.9512  16.9013   C         1 RES1   0.0000
  1001 H1      41.4930  35.7068  17.8192   H         1 RES1   0.0000
  1002 O1      41.4930  39.5428  24.2782   O         1 RES1   0.0000
  1003 C3      41.4930  35.9512  24.5917   C         1 RES1   0.0000
  1004 H1      41.4930  35.7068  23.6738   H         1 RES1   0.0000
  1005 O1      39.5428  37.9613  20.7465   O         1 RES1   0.0000
  1006 C3      35.9512  37.6478  20.7465   C         1 RES1   0.0000
  1007 H1      35.7068  38.5657  20.7465   H         1 RES1   0.0000
  1008 O1      37.9613  41.4930  22.6967   O         1 RES1   0.0000
  1009 C3      37.6478  41.4930  26.2883   C         1 RES1   0.0000
  1010 H1      38.5657  41.4930  26.5327   H         1 RES1   0.0000
  1011 O1      37.9613  41.4930  18.7963   O         1 RES1   0.0000
  1012 C2      37.2858  41.4930  16.5393   C         1 RES1   0.0000
  1013 C3      37.6478  41.4930  15.2047   C         1 RES1   0.0000
  1014 H1      38.5657  41.4930  14.9603   H         1 RES1   0.0000
  1015 C1      38.3439  41.4930  17.5974   C         1 RES1   0.0000
  1016 O1      39.5428  41.4930  17.2148   O         1 RES1   0.0000
  1017 C3      35.9512  41.4930  16.9013   C         1 RES1   0.0000
  1018 H1      35.7068  41.4930  17.8192   H         1 RES1   0.0000
  1019 C3      41.4930  34.9649  15.9151   C         1 RES1   0.0000
  1020 C3      41.4930  34.9649  25.5779   C         1 RES1   0.0000
  1021 C3      41.4930  36.6616  27.2746   C         1 RES1   0.0000
  1022 C3      41.4930  36.6616  14.2184   C         1 RES1   0.0000
  1023 C3      36.6616  41.4930  14.2184   C         1 RES1   0.0000
  1024 C3      36.6616  41.4930  27.2746   C         1 RES1   0.0000
  1025 C3      34.9649  41.4930  25.5779   C         1 RES1   0.0000
  1026 C3      34.9649  41.4930  15.9151   C         1 RES1   0.0000
  1027 C3      34.9649  36.6616  20.7465   C         1 RES1   0.0000
  1028 C3      36.6616  34.9649  20.7465   C         1 RES1   0.0000
  1029 Zr      39.0086  41.4930  41.4930   Z         1 RES1   0.0000
  1030 O1      37.9613  39.5428  41.4930   O         1 RES1   0.0000
  1031 C2      37.2858  37.2858  41.4930   C         1 RES1   0.0000
  1032 C3      37.6478  35.9512  41.4930   C         1 RES1   0.0000
  1033 H1      38.5657  35.7068  41.4930   H         1 RES1   0.0000
  1034 C1      38.3439  38.3439  41.4930   C         1 RES1   0.0000
  1035 Zr      41.4930  39.0086  41.4930   Z         1 RES1   0.0000
  1036 O1      41.4930  37.9613  39.5428   O         1 RES1   0.0000
  1037 C2      41.4930  37.2858  37.2858   C         1 RES1   0.0000
  1038 C3      41.4930  37.6478  35.9512   C         1 RES1   0.0000
  1039 H1      41.4930  38.5657  35.7068   H         1 RES1   0.0000
  1040 C1      41.4930  38.3439  38.3439   C         1 RES1   0.0000
  1041 Zr      41.4930  41.4930  39.0086   Z         1 RES1   0.0000
  1042 O3      40.4453  40.4453  40.4453   O         1 RES1   0.0000
  1043 O1      41.4930  39.5428  37.9613   O         1 RES1   0.0000
  1044 C3      41.4930  35.9512  37.6478   C         1 RES1   0.0000
  1045 H1      41.4930  35.7068  38.5657   H         1 RES1   0.0000
  1046 O1      39.5428  37.9613  41.4930   O         1 RES1   0.0000
  1047 C3      35.9512  37.6478  41.4930   C         1 RES1   0.0000
  1048 H1      35.7068  38.5657  41.4930   H         1 RES1   0.0000
  1049 O1      37.9613  41.4930  39.5428   O         1 RES1   0.0000
  1050 C2      37.2858  41.4930  37.2858   C         1 RES1   0.0000
  1051 C3      37.6478  41.4930  35.9512   C         1 RES1   0.0000
  1052 H1      38.5657  41.4930  35.7068   H         1 RES1   0.0000
  1053 C1      38.3439  41.4930  38.3439   C         1 RES1   0.0000
  1054 O1      39.5428  41.4930  37.9613   O         1 RES1   0.0000
  1055 C3      35.9512  41.4930  37.6478   C         1 RES1   0.0000
  1056 H1      35.7068  41.4930  38.5657   H         1 RES1   0.0000
  1057 C3      41.4930  34.9649  36.6616   C         1 RES1   0.0000
  1058 C3      41.4930  36.6616  34.9649   C         1 RES1   0.0000
  1059 C3      36.6616  41.4930  34.9649   C         1 RES1   0.0000
  1060 C3      34.9649  41.4930  36.6616   C         1 RES1   0.0000
  1061 C3      34.9649  36.6616  41.4930   C         1 RES1   0.0000
  1062 C3      36.6616  34.9649  41.4930   C         1 RES1   0.0000
  1063 O1       1.9502  10.3733  13.9049   O         1 RES1   0.0000
  1064 C2       4.2072  10.3733  14.5804   C         1 RES1   0.0000
  1065 C3       5.5418  10.3733  14.2184   C         1 RES1   0.0000
  1066 H1       5.7862  10.3733  13.3006   H         1 RES1   0.0000
  1067 C1       3.1491  10.3733  13.5224   C         1 RES1   0.0000
  1068 O3       1.0477  11.4209  11.4209   O         1 RES1   0.0000
  1069 Zr       2.4844  10.3733  10.3733   Z         1 RES1   0.0000
  1070 O1       3.5317  12.3234  10.3733   O         1 RES1   0.0000
  1071 C2       4.2072  14.5804  10.3733   C         1 RES1   0.0000
  1072 C3       3.8452  15.9151  10.3733   C         1 RES1   0.0000
  1073 H1       2.9273  16.1594  10.3733   H         1 RES1   0.0000
  1074 O3       1.0477   9.3256   9.3256   O         1 RES1   0.0000
  1075 C1       3.1491  13.5224  10.3733   C         1 RES1   0.0000
  1076 O1       3.5317   8.4231  10.3733   O         1 RES1   0.0000
  1077 C2       4.2072   6.1661  10.3733   C         1 RES1   0.0000
  1078 C3       3.8452   4.8314  10.3733   C         1 RES1   0.0000
  1079 H1       2.9273   4.5871  10.3733   H         1 RES1   0.0000
  1080 C1       3.1491   7.2241  10.3733   C         1 RES1   0.0000
  1081 O3       1.0477  11.4209   9.3256   O         1 RES1   0.0000
  1082 O3       1.0477   9.3256  11.4209   O         1 RES1   0.0000
  1083 O1       1.9502  13.9049  10.3733   O         1 RES1   0.0000
  1084 C3       5.5418  14.2184  10.3733   C         1 RES1   0.0000
  1085 H1       5.7862  13.3006  10.3733   H         1 RES1   0.0000
  1086 O1       1.9502   6.8416  10.3733   O         1 RES1   0.0000
  1087 C3       5.5418   6.5281  10.3733   C         1 RES1   0.0000
  1088 H1       5.7862   7.4459  10.3733   H         1 RES1   0.0000
  1089 O1       3.5317  10.3733   8.4231   O         1 RES1   0.0000
  1090 C2       4.2072  10.3733   6.1661   C         1 RES1   0.0000
  1091 C3       3.8452  10.3733   4.8314   C         1 RES1   0.0000
  1092 H1       2.9273  10.3733   4.5871   H         1 RES1   0.0000
  1093 C1       3.1491  10.3733   7.2241   C         1 RES1   0.0000
  1094 O1       3.5317  10.3733  12.3234   O         1 RES1   0.0000
  1095 C3       3.8452  10.3733  15.9151   C         1 RES1   0.0000
  1096 H1       2.9273  10.3733  16.1594   H         1 RES1   0.0000
  1097 O1       1.9502  10.3733   6.8416   O         1 RES1   0.0000
  1098 C3       5.5418  10.3733   6.5281   C         1 RES1   0.0000
  1099 H1       5.7862  10.3733   7.4459   H         1 RES1   0.0000
  1100 C3       4.8314  10.3733   3.8452   C         1 RES1   0.0000
  1101 C3       4.8314  10.3733  16.9013   C         1 RES1   0.0000
  1102 C3       6.5281  10.3733   5.5418   C         1 RES1   0.0000
  1103 C3       6.5281  10.3733  15.2047   C         1 RES1   0.0000
  1104 C3       6.5281  15.2047  10.3733   C         1 RES1   0.0000
  1105 C3       6.5281   5.5418  10.3733   C         1 RES1   0.0000
  1106 C3       4.8314   3.8452  10.3733   C         1 RES1   0.0000
  1107 C3       4.8314  16.9013  10.3733   C         1 RES1   0.0000
  1108 O1       1.9502  10.3733  34.6514   O         1 RES1   0.0000
  1109 C2       4.2072  10.3733  35.3269   C         1 RES1   0.0000
  1110 C3       5.5418  10.3733  34.9649   C         1 RES1   0.0000
  1111 H1       5.7862  10.3733  34.0471   H         1 RES1   0.0000
  1112 C1       3.1491  10.3733  34.2689   C         1 RES1   0.0000
  1113 O3       1.0477  11.4209  32.1674   O         1 RES1   0.0000
  1114 Zr       2.4844  10.3733  31.1198   Z         1 RES1   0.0000
  1115 O1       3.5317  12.3234  31.1198   O         1 RES1   0.0000
  1116 C2       4.2072  14.5804  31.1198   C         1 RES1   0.0000
  1117 C3       3.8452  15.9151  31.1198   C         1 RES1   0.0000
  1118 H1       2.9273  16.1594  31.1198   H         1 RES1   0.0000
  1119 O3       1.0477   9.3256  30.0721   O         1 RES1   0.0000
  1120 C1       3.1491  13.5224  31.1198   C         1 RES1   0.0000
  1121 O1       3.5317   8.4231  31.1198   O         1 RES1   0.0000
  1122 C2       4.2072   6.1661  31.1198   C         1 RES1   0.0000
  1123 C3       3.8452   4.8314  31.1198   C         1 RES1   0.0000
  1124 H1       2.9273   4.5871  31.1198   H         1 RES1   0.0000
  1125 C1       3.1491   7.2241  31.1198   C         1 RES1   0.0000
  1126 O3       1.0477  11.4209  30.0721   O         1 RES1   0.0000
  1127 O3       1.0477   9.3256  32.1674   O         1 RES1   0.0000
  1128 O1       1.9502  13.9049  31.1198   O         1 RES1   0.0000
  1129 C3       5.5418  14.2184  31.1198   C         1 RES1   0.0000
  1130 H1       5.7862  13.3006  31.1198   H         1 RES1   0.0000
  1131 O1       1.9502   6.8416  31.1198   O         1 RES1   0.0000
  1132 C3       5.5418   6.5281  31.1198   C         1 RES1   0.0000
  1133 H1       5.7862   7.4459  31.1198   H         1 RES1   0.0000
  1134 O1       3.5317  10.3733  29.1696   O         1 RES1   0.0000
  1135 C2       4.2072  10.3733  26.9126   C         1 RES1   0.0000
  1136 C3       3.8452  10.3733  25.5779   C         1 RES1   0.0000
  1137 H1       2.9273  10.3733  25.3336   H         1 RES1   0.0000
  1138 C1       3.1491  10.3733  27.9706   C         1 RES1   0.0000
  1139 O1       3.5317  10.3733  33.0699   O         1 RES1   0.0000
  1140 C3       3.8452  10.3733  36.6616   C         1 RES1   0.0000
  1141 H1       2.9273  10.3733  36.9059   H         1 RES1   0.0000
  1142 O1       1.9502  10.3733  27.5881   O         1 RES1   0.0000
  1143 C3       5.5418  10.3733  27.2746   C         1 RES1   0.0000
  1144 H1       5.7862  10.3733  28.1924   H         1 RES1   0.0000
  1145 C3       4.8314  10.3733  24.5917   C         1 RES1   0.0000
  1146 C3       4.8314  10.3733  37.6478   C         1 RES1   0.0000
  1147 C3       6.5281  10.3733  26.2883   C         1 RES1   0.0000
  1148 C3       6.5281  10.3733  35.9512   C         1 RES1   0.0000
  1149 C3       6.5281  15.2047  31.1198   C         1 RES1   0.0000
  1150 C3       6.5281   5.5418  31.1198   C         1 RES1   0.0000
  1151 C3       4.8314   3.8452  31.1198   C         1 RES1   0.0000
  1152 C3       4.8314  16.9013  31.1198   C         1 RES1   0.0000
  1153 O1       1.9502  31.1198  13.9049   O         1 RES1   0.0000
  1154 C2       4.2072  31.1198  14.5804   C         1 RES1   0.0000
  1155 C3       5.5418  31.1198  14.2184   C         1 RES1   0.0000
  1156 H1       5.7862  31.1198  13.3006   H         1 RES1   0.0000
  1157 C1       3.1491  31.1198  13.5224   C         1 RES1   0.0000
  1158 O3       1.0477  32.1674  11.4209   O         1 RES1   0.0000
  1159 Zr       2.4844  31.1198  10.3733   Z         1 RES1   0.0000
  1160 O1       3.5317  33.0699  10.3733   O         1 RES1   0.0000
  1161 C2       4.2072  35.3269  10.3733   C         1 RES1   0.0000
  1162 C3       3.8452  36.6616  10.3733   C         1 RES1   0.0000
  1163 H1       2.9273  36.9059  10.3733   H         1 RES1   0.0000
  1164 O3       1.0477  30.0721   9.3256   O         1 RES1   0.0000
  1165 C1       3.1491  34.2689  10.3733   C         1 RES1   0.0000
  1166 O1       3.5317  29.1696  10.3733   O         1 RES1   0.0000
  1167 C2       4.2072  26.9126  10.3733   C         1 RES1   0.0000
  1168 C3       3.8452  25.5779  10.3733   C         1 RES1   0.0000
  1169 H1       2.9273  25.3336  10.3733   H         1 RES1   0.0000
  1170 C1       3.1491  27.9706  10.3733   C         1 RES1   0.0000
  1171 O3       1.0477  32.1674   9.3256   O         1 RES1   0.0000
  1172 O3       1.0477  30.0721  11.4209   O         1 RES1   0.0000
  1173 O1       1.9502  34.6514  10.3733   O         1 RES1   0.0000
  1174 C3       5.5418  34.9649  10.3733   C         1 RES1   0.0000
  1175 H1       5.7862  34.0471  10.3733   H         1 RES1   0.0000
  1176 O1       1.9502  27.5881  10.3733   O         1 RES1   0.0000
  1177 C3       5.5418  27.2746  10.3733   C         1 RES1   0.0000
  1178 H1       5.7862  28.1924  10.3733   H         1 RES1   0.0000
  1179 O1       3.5317  31.1198   8.4231   O         1 RES1   0.0000
  1180 C2       4.2072  31.1198   6.1661   C         1 RES1   0.0000
  1181 C3       3.8452  31.1198   4.8314   C         1 RES1   0.0000
  1182 H1       2.9273  31.1198   4.5871   H         1 RES1   0.0000
  1183 C1       3.1491  31.1198   7.2241   C         1 RES1   0.0000
  1184 O1       3.5317  31.1198  12.3234   O         1 RES1   0.0000
  1185 C3       3.8452  31.1198  15.9151   C         1 RES1   0.0000
  1186 H1       2.9273  31.1198  16.1594   H         1 RES1   0.0000
  1187 O1       1.9502  31.1198   6.8416   O         1 RES1   0.0000
  1188 C3       5.5418  31.1198   6.5281   C         1 RES1   0.0000
  1189 H1       5.7862  31.1198   7.4459   H         1 RES1   0.0000
  1190 C3       4.8314  31.1198   3.8452   C         1 RES1   0.0000
  1191 C3       4.8314  31.1198  16.9013   C         1 RES1   0.0000
  1192 C3       6.5281  31.1198   5.5418   C         1 RES1   0.0000
  1193 C3       6.5281  31.1198  15.2047   C         1 RES1   0.0000
  1194 C3       6.5281  35.9512  10.3733   C         1 RES1   0.0000
  1195 C3       6.5281  26.2883  10.3733   C         1 RES1   0.0000
  1196 C3       4.8314  24.5917  10.3733   C         1 RES1   0.0000
  1197 C3       4.8314  37.6478  10.3733   C         1 RES1   0.0000
  1198 O1       1.9502  31.1198  34.6514   O         1 RES1   0.0000
  1199 C2       4.2072  31.1198  35.3269   C         1 RES1   0.0000
  1200 C3       5.5418  31.1198  34.9649   C         1 RES1   0.0000
  1201 H1       5.7862  31.1198  34.0471   H         1 RES1   0.0000
  1202 C1       3.1491  31.1198  34.2689   C         1 RES1   0.0000
  1203 O3       1.0477  32.1674  32.1674   O         1 RES1   0.0000
  1204 Zr       2.4844  31.1198  31.1198   Z         1 RES1   0.0000
  1205 O1       3.5317  33.0699  31.1198   O         1 RES1   0.0000
  1206 C2       4.2072  35.3269  31.1198   C         1 RES1   0.0000
  1207 C3       3.8452  36.6616  31.1198   C         1 RES1   0.0000
  1208 H1       2.9273  36.9059  31.1198   H         1 RES1   0.0000
  1209 O3       1.0477  30.0721  30.0721   O         1 RES1   0.0000
  1210 C1       3.1491  34.2689  31.1198   C         1 RES1   0.0000
  1211 O1       3.5317  29.1696  31.1198   O         1 RES1   0.0000
  1212 C2       4.2072  26.9126  31.1198   C         1 RES1   0.0000
  1213 C3       3.8452  25.5779  31.1198   C         1 RES1   0.0000
  1214 H1       2.9273  25.3336  31.1198   H         1 RES1   0.0000
  1215 C1       3.1491  27.9706  31.1198   C         1 RES1   0.0000
  1216 O3       1.0477  32.1674  30.0721   O         1 RES1   0.0000
  1217 O3       1.0477  30.0721  32.1674   O         1 RES1   0.0000
  1218 O1       1.9502  34.6514  31.1198   O         1 RES1   0.0000
  1219 C3       5.5418  34.9649  31.1198   C         1 RES1   0.0000
  1220 H1       5.7862  34.0471  31.1198   H         1 RES1   0.0000
  1221 O1       1.9502  27.5881  31.1198   O         1 RES1   0.0000
  1222 C3       5.5418  27.2746  31.1198   C         1 RES1   0.0000
  1223 H1       5.7862  28.1924  31.1198   H         1 RES1   0.0000
  1224 O1       3.5317  31.1198  29.1696   O         1 RES1   0.0000
  1225 C2       4.2072  31.1198  26.9126   C         1 RES1   0.0000
  1226 C3       3.8452  31.1198  25.5779   C         1 RES1   0.0000
  1227 H1       2.9273  31.1198  25.3336   H         1 RES1   0.0000
  1228 C1       3.1491  31.1198  27.9706   C         1 RES1   0.0000
  1229 O1       3.5317  31.1198  33.0699   O         1 RES1   0.0000
  1230 C3       3.8452  31.1198  36.6616   C         1 RES1   0.0000
  1231 H1       2.9273  31.1198  36.9059   H         1 RES1   0.0000
  1232 O1       1.9502  31.1198  27.5881   O         1 RES1   0.0000
  1233 C3       5.5418  31.1198  27.2746   C         1 RES1   0.0000
  1234 H1       5.7862  31.1198  28.1924   H         1 RES1   0.0000
  1235 C3       4.8314  31.1198  24.5917   C         1 RES1   0.0000
  1236 C3       4.8314  31.1198  37.6478   C         1 RES1   0.0000
  1237 C3       6.5281  31.1198  26.2883   C         1 RES1   0.0000
  1238 C3       6.5281  31.1198  35.9512   C         1 RES1   0.0000
  1239 C3       6.5281  35.9512  31.1198   C         1 RES1   0.0000
  1240 C3       6.5281  26.2883  31.1198   C         1 RES1   0.0000
  1241 C3       4.8314  24.5917  31.1198   C         1 RES1   0.0000
  1242 C3       4.8314  37.6478  31.1198   C         1 RES1   0.0000
  1243 Zr      20.7465  10.3733  12.8576   Z         1 RES1   0.0000
  1244 O1      22.6967  10.3733  13.9049   O         1 RES1   0.0000
  1245 C2      24.9537  10.3733  14.5804   C         1 RES1   0.0000
  1246 C3      26.2883  10.3733  14.2184   C         1 RES1   0.0000
  1247 H1      26.5327  10.3733  13.3006   H         1 RES1   0.0000
  1248 O3      19.6988   9.3256  11.4209   O         1 RES1   0.0000
  1249 C1      23.8956  10.3733  13.5224   C         1 RES1   0.0000
  1250 O1      18.7963  10.3733  13.9049   O         1 RES1   0.0000
  1251 C2      16.5393  10.3733  14.5804   C         1 RES1   0.0000
  1252 C3      15.2047  10.3733  14.2184   C         1 RES1   0.0000
  1253 H1      14.9603  10.3733  13.3006   H         1 RES1   0.0000
  1254 O3      21.7942  11.4209  11.4209   O         1 RES1   0.0000
  1255 C1      17.5974  10.3733  13.5224   C         1 RES1   0.0000
  1256 Zr      23.2309  10.3733  10.3733   Z         1 RES1   0.0000
  1257 O1      24.2782  12.3234  10.3733   O         1 RES1   0.0000
  1258 C2      24.9537  14.5804  10.3733   C         1 RES1   0.0000
  1259 C3      24.5917  15.9151  10.3733   C         1 RES1   0.0000
  1260 H1      23.6738  16.1594  10.3733   H         1 RES1   0.0000
  1261 O3      21.7942   9.3256   9.3256   O         1 RES1   0.0000
  1262 C1      23.8956  13.5224  10.3733   C         1 RES1   0.0000
  1263 O1      24.2782   8.4231  10.3733   O         1 RES1   0.0000
  1264 C2      24.9537   6.1661  10.3733   C         1 RES1   0.0000
  1265 C3      24.5917   4.8314  10.3733   C         1 RES1   0.0000
  1266 H1      23.6738   4.5871  10.3733   H         1 RES1   0.0000
  1267 C1      23.8956   7.2241  10.3733   C         1 RES1   0.0000
  1268 Zr      18.2621  10.3733  10.3733   Z         1 RES1   0.0000
  1269 O1      17.2148   8.4231  10.3733   O         1 RES1   0.0000
  1270 C2      16.5393   6.1661  10.3733   C         1 RES1   0.0000
  1271 C3      16.9013   4.8314  10.3733   C         1 RES1   0.0000
  1272 H1      17.8192   4.5871  10.3733   H         1 RES1   0.0000
  1273 O3      19.6988  11.4209   9.3256   O         1 RES1   0.0000
  1274 C1      17.5974   7.2241  10.3733   C         1 RES1   0.0000
  1275 O1      17.2148  12.3234  10.3733   O         1 RES1   0.0000
  1276 C2      16.5393  14.5804  10.3733   C         1 RES1   0.0000
  1277 C3      16.9013  15.9151  10.3733   C         1 RES1   0.0000
  1278 H1      17.8192  16.1594  10.3733   H         1 RES1   0.0000
  1279 C1      17.5974  13.5224  10.3733   C         1 RES1   0.0000
  1280 Zr      20.7465  12.8576  10.3733   Z         1 RES1   0.0000
  1281 O1      20.7465  13.9049  12.3234   O         1 RES1   0.0000
  1282 C2      20.7465  14.5804  14.5804   C         1 RES1   0.0000
  1283 H1      20.7465  13.3006  16.1594   H         1 RES1   0.0000
  1284 C1      20.7465  13.5224  13.5224   C         1 RES1   0.0000
  1285 O1      20.7465  13.9049   8.4231   O         1 RES1   0.0000
  1286 C2      20.7465  14.5804   6.1661   C         1 RES1   0.0000
  1287 H1      20.7465  13.3006   4.5871   H         1 RES1   0.0000
  1288 C1      20.7465  13.5224   7.2241   C         1 RES1   0.0000
  1289 Zr      20.7465   7.8889  10.3733   Z         1 RES1   0.0000
  1290 O1      20.7465   6.8416   8.4231   O         1 RES1   0.0000
  1291 C2      20.7465   6.1661   6.1661   C         1 RES1   0.0000
  1292 H1      20.7465   7.4459   4.5871   H         1 RES1   0.0000
  1293 C1      20.7465   7.2241   7.2241   C         1 RES1   0.0000
  1294 O1      20.7465   6.8416  12.3234   O         1 RES1   0.0000
  1295 C2      20.7465   6.1661  14.5804   C         1 RES1   0.0000
  1296 H1      20.7465   7.4459  16.1594   H         1 RES1   0.0000
  1297 C1      20.7465   7.2241  13.5224   C         1 RES1   0.0000
  1298 Zr      20.7465  10.3733   7.8889   Z         1 RES1   0.0000
  1299 O1      20.7465  12.3234   6.8416   O         1 RES1   0.0000
  1300 H1      20.7465  16.1594   7.4459   H         1 RES1   0.0000
  1301 O3      19.6988   9.3256   9.3256   O         1 RES1   0.0000
  1302 O1      20.7465   8.4231   6.8416   O         1 RES1   0.0000
  1303 H1      20.7465   4.5871   7.4459   H         1 RES1   0.0000
  1304 O3      21.7942  11.4209   9.3256   O         1 RES1   0.0000
  1305 O1      20.7465   8.4231  13.9049   O         1 RES1   0.0000
  1306 H1      20.7465   4.5871  13.3006   H         1 RES1   0.0000
  1307 O3      19.6988  11.4209  11.4209   O         1 RES1   0.0000
  1308 O1      20.7465  12.3234  13.9049   O         1 RES1   0.0000
  1309 H1      20.7465  16.1594  13.3006   H         1 RES1   0.0000
  1310 O3      21.7942   9.3256  11.4209   O         1 RES1   0.0000
  1311 O1      22.6967  13.9049  10.3733   O         1 RES1   0.0000
  1312 C3      26.2883  14.2184  10.3733   C         1 RES1   0.0000
  1313 H1      26.5327  13.3006  10.3733   H         1 RES1   0.0000
  1314 O1      18.7963  13.9049  10.3733   O         1 RES1   0.0000
  1315 C3      15.2047  14.2184  10.3733   C         1 RES1   0.0000
  1316 H1      14.9603  13.3006  10.3733   H         1 RES1   0.0000
  1317 O1      18.7963   6.8416  10.3733   O         1 RES1   0.0000
  1318 C3      15.2047   6.5281  10.3733   C         1 RES1   0.0000
  1319 H1      14.9603   7.4459  10.3733   H         1 RES1   0.0000
  1320 O1      22.6967   6.8416  10.3733   O         1 RES1   0.0000
  1321 C3      26.2883   6.5281  10.3733   C         1 RES1   0.0000
  1322 H1      26.5327   7.4459  10.3733   H         1 RES1   0.0000
  1323 O1      24.2782  10.3733   8.4231   O         1 RES1   0.0000
  1324 C2      24.9537  10.3733   6.1661   C         1 RES1   0.0000
  1325 C3      24.5917  10.3733   4.8314   C         1 RES1   0.0000
  1326 H1      23.6738  10.3733   4.5871   H         1 RES1   0.0000
  1327 C1      23.8956  10.3733   7.2241   C         1 RES1   0.0000
  1328 O1      24.2782  10.3733  12.3234   O         1 RES1   0.0000
  1329 C3      24.5917  10.3733  15.9151   C         1 RES1   0.0000
  1330 H1      23.6738  10.3733  16.1594   H         1 RES1   0.0000
  1331 O1      17.2148  10.3733  12.3234   O         1 RES1   0.0000
  1332 C3      16.9013  10.3733  15.9151   C         1 RES1   0.0000
  1333 H1      17.8192  10.3733  16.1594   H         1 RES1   0.0000
  1334 O1      17.2148  10.3733   8.4231   O         1 RES1   0.0000
  1335 C2      16.5393  10.3733   6.1661   C         1 RES1   0.0000
  1336 C3      16.9013  10.3733   4.8314   C         1 RES1   0.0000
  1337 H1      17.8192  10.3733   4.5871   H         1 RES1   0.0000
  1338 C1      17.5974  10.3733   7.2241   C         1 RES1   0.0000
  1339 O1      18.7963  10.3733   6.8416   O         1 RES1   0.0000
  1340 C3      15.2047  10.3733   6.5281   C         1 RES1   0.0000
  1341 H1      14.9603  10.3733   7.4459   H         1 RES1   0.0000
  1342 O1      22.6967  10.3733   6.8416   O         1 RES1   0.0000
  1343 C3      26.2883  10.3733   6.5281   C         1 RES1   0.0000
  1344 H1      26.5327  10.3733   7.4459   H         1 RES1   0.0000
  1345 C3      15.9151  10.3733   3.8452   C         1 RES1   0.0000
  1346 C3      25.5779  10.3733   3.8452   C         1 RES1   0.0000
  1347 C3      25.5779  10.3733  16.9013   C         1 RES1   0.0000
  1348 C3      15.9151  10.3733  16.9013   C         1 RES1   0.0000
  1349 C3      14.2184  10.3733  15.2047   C         1 RES1   0.0000
  1350 C3      14.2184  10.3733   5.5418   C         1 RES1   0.0000
  1351 C3      27.2746  10.3733   5.5418   C         1 RES1   0.0000
  1352 C3      27.2746  10.3733  15.2047   C         1 RES1   0.0000
  1353 C3      14.2184   5.5418  10.3733   C         1 RES1   0.0000
  1354 C3      14.2184  15.2047  10.3733   C         1 RES1   0.0000
  1355 C3      27.2746  15.2047  10.3733   C         1 RES1   0.0000
  1356 C3      27.2746   5.5418  10.3733   C         1 RES1   0.0000
  1357 C3      15.9151   3.8452  10.3733   C         1 RES1   0.0000
  1358 C3      25.5779   3.8452  10.3733   C         1 RES1   0.0000
  1359 C3      25.5779  16.9013  10.3733   C         1 RES1   0.0000
  1360 C3      15.9151  16.9013  10.3733   C         1 RES1   0.0000
  1361 Zr      20.7465  10.3733  33.6041   Z         1 RES1   0.0000
  1362 O1      22.6967  10.3733  34.6514   O         1 RES1   0.0000
  1363 C2      24.9537  10.3733  35.3269   C         1 RES1   0.0000
  1364 C3      26.2883  10.3733  34.9649   C         1 RES1   0.0000
  1365 H1      26.5327  10.3733  34.0471   H         1 RES1   0.0000
  1366 O3      19.6988   9.3256  32.1674   O         1 RES1   0.0000
  1367 C1      23.8956  10.3733  34.2689   C         1 RES1   0.0000
  1368 O1      18.7963  10.3733  34.6514   O         1 RES1   0.0000
  1369 C2      16.5393  10.3733  35.3269   C         1 RES1   0.0000
  1370 C3      15.2047  10.3733  34.9649   C         1 RES1   0.0000
  1371 H1      14.9603  10.3733  34.0471   H         1 RES1   0.0000
  1372 O3      21.7942  11.4209  32.1674   O         1 RES1   0.0000
  1373 C1      17.5974  10.3733  34.2689   C         1 RES1   0.0000
  1374 Zr      23.2309  10.3733  31.1198   Z         1 RES1   0.0000
  1375 O1      24.2782  12.3234  31.1198   O         1 RES1   0.0000
  1376 C2      24.9537  14.5804  31.1198   C         1 RES1   0.0000
  1377 C3      24.5917  15.9151  31.1198   C         1 RES1   0.0000
  1378 H1      23.6738  16.1594  31.1198   H         1 RES1   0.0000
  1379 O3      21.7942   9.3256  30.0721   O         1 RES1   0.0000
  1380 C1      23.8956  13.5224  31.1198   C         1 RES1   0.0000
  1381 O1      24.2782   8.4231  31.1198   O         1 RES1   0.0000
  1382 C2      24.9537   6.1661  31.1198   C         1 RES1   0.0000
  1383 C3      24.5917   4.8314  31.1198   C         1 RES1   0.0000
  1384 H1      23.6738   4.5871  31.1198   H         1 RES1   0.0000
  1385 C1      23.8956   7.2241  31.1198   C         1 RES1   0.0000
  1386 Zr      18.2621  10.3733  31.1198   Z         1 RES1   0.0000
  1387 O1      17.2148   8.4231  31.1198   O         1 RES1   0.0000
  1388 C2      16.5393   6.1661  31.1198   C         1 RES1   0.0000
  1389 C3      16.9013   4.8314  31.1198   C         1 RES1   0.0000
  1390 H1      17.8192   4.5871  31.1198   H         1 RES1   0.0000
  1391 O3      19.6988  11.4209  30.0721   O         1 RES1   0.0000
  1392 C1      17.5974   7.2241  31.1198   C         1 RES1   0.0000
  1393 O1      17.2148  12.3234  31.1198   O         1 RES1   0.0000
  1394 C2      16.5393  14.5804  31.1198   C         1 RES1   0.0000
  1395 C3      16.9013  15.9151  31.1198   C         1 RES1   0.0000
  1396 H1      17.8192  16.1594  31.1198   H         1 RES1   0.0000
  1397 C1      17.5974  13.5224  31.1198   C         1 RES1   0.0000
  1398 Zr      20.7465  12.8576  31.1198   Z         1 RES1   0.0000
  1399 O1      20.7465  13.9049  33.0699   O         1 RES1   0.0000
  1400 C2      20.7465  14.5804  35.3269   C         1 RES1   0.0000
  1401 H1      20.7465  13.3006  36.9059   H         1 RES1   0.0000
  1402 C1      20.7465  13.5224  34.2689   C         1 RES1   0.0000
  1403 O1      20.7465  13.9049  29.1696   O         1 RES1   0.0000
  1404 C2      20.7465  14.5804  26.9126   C         1 RES1   0.0000
  1405 H1      20.7465  13.3006  25.3336   H         1 RES1   0.0000
  1406 C1      20.7465  13.5224  27.9706   C         1 RES1   0.0000
  1407 Zr      20.7465   7.8889  31.1198   Z         1 RES1   0.0000
  1408 O1      20.7465   6.8416  29.1696   O         1 RES1   0.0000
  1409 C2      20.7465   6.1661  26.9126   C         1 RES1   0.0000
  1410 H1      20.7465   7.4459  25.3336   H         1 RES1   0.0000
  1411 C1      20.7465   7.2241  27.9706   C         1 RES1   0.0000
  1412 O1      20.7465   6.8416  33.0699   O         1 RES1   0.0000
  1413 C2      20.7465   6.1661  35.3269   C         1 RES1   0.0000
  1414 H1      20.7465   7.4459  36.9059   H         1 RES1   0.0000
  1415 C1      20.7465   7.2241  34.2689   C         1 RES1   0.0000
  1416 Zr      20.7465  10.3733  28.6354   Z         1 RES1   0.0000
  1417 O1      20.7465  12.3234  27.5881   O         1 RES1   0.0000
  1418 H1      20.7465  16.1594  28.1924   H         1 RES1   0.0000
  1419 O3      19.6988   9.3256  30.0721   O         1 RES1   0.0000
  1420 O1      20.7465   8.4231  27.5881   O         1 RES1   0.0000
  1421 H1      20.7465   4.5871  28.1924   H         1 RES1   0.0000
  1422 O3      21.7942  11.4209  30.0721   O         1 RES1   0.0000
  1423 O1      20.7465   8.4231  34.6514   O         1 RES1   0.0000
  1424 H1      20.7465   4.5871  34.0471   H         1 RES1   0.0000
  1425 O3      19.6988  11.4209  32.1674   O         1 RES1   0.0000
  1426 O1      20.7465  12.3234  34.6514   O         1 RES1   0.0000
  1427 H1      20.7465  16.1594  34.0471   H         1 RES1   0.0000
  1428 O3      21.7942   9.3256  32.1674   O         1 RES1   0.0000
  1429 O1      22.6967  13.9049  31.1198   O         1 RES1   0.0000
  1430 C3      26.2883  14.2184  31.1198   C         1 RES1   0.0000
  1431 H1      26.5327  13.3006  31.1198   H         1 RES1   0.0000
  1432 O1      18.7963  13.9049  31.1198   O         1 RES1   0.0000
  1433 C3      15.2047  14.2184  31.1198   C         1 RES1   0.0000
  1434 H1      14.9603  13.3006  31.1198   H         1 RES1   0.0000
  1435 O1      18.7963   6.8416  31.1198   O         1 RES1   0.0000
  1436 C3      15.2047   6.5281  31.1198   C         1 RES1   0.0000
  1437 H1      14.9603   7.4459  31.1198   H         1 RES1   0.0000
  1438 O1      22.6967   6.8416  31.1198   O         1 RES1   0.0000
  1439 C3      26.2883   6.5281  31.1198   C         1 RES1   0.0000
  1440 H1      26.5327   7.4459  31.1198   H         1 RES1   0.0000
  1441 O1      24.2782  10.3733  29.1696   O         1 RES1   0.0000
  1442 C2      24.9537  10.3733  26.9126   C         1 RES1   0.0000
  1443 C3      24.5917  10.3733  25.5779   C         1 RES1   0.0000
  1444 H1      23.6738  10.3733  25.3336   H         1 RES1   0.0000
  1445 C1      23.8956  10.3733  27.9706   C         1 RES1   0.0000
  1446 O1      24.2782  10.3733  33.0699   O         1 RES1   0.0000
  1447 C3      24.5917  10.3733  36.6616   C         1 RES1   0.0000
  1448 H1      23.6738  10.3733  36.9059   H         1 RES1   0.0000
  1449 O1      17.2148  10.3733  33.0699   O         1 RES1   0.0000
  1450 C3      16.9013  10.3733  36.6616   C         1 RES1   0.0000
  1451 H1      17.8192  10.3733  36.9059   H         1 RES1   0.0000
  1452 O1      17.2148  10.3733  29.1696   O         1 RES1   0.0000
  1453 C2      16.5393  10.3733  26.9126   C         1 RES1   0.0000
  1454 C3      16.9013  10.3733  25.5779   C         1 RES1   0.0000
  1455 H1      17.8192  10.3733  25.3336   H         1 RES1   0.0000
  1456 C1      17.5974  10.3733  27.9706   C         1 RES1   0.0000
  1457 O1      18.7963  10.3733  27.5881   O         1 RES1   0.0000
  1458 C3      15.2047  10.3733  27.2746   C         1 RES1   0.0000
  1459 H1      14.9603  10.3733  28.1924   H         1 RES1   0.0000
  1460 O1      22.6967  10.3733  27.5881   O         1 RES1   0.0000
  1461 C3      26.2883  10.3733  27.2746   C         1 RES1   0.0000
  1462 H1      26.5327  10.3733  28.1924   H         1 RES1   0.0000
  1463 C3      15.9151  10.3733  24.5917   C         1 RES1   0.0000
  1464 C3      25.5779  10.3733  24.5917   C         1 RES1   0.0000
  1465 C3      25.5779  10.3733  37.6478   C         1 RES1   0.0000
  1466 C3      15.9151  10.3733  37.6478   C         1 RES1   0.0000
  1467 C3      14.2184  10.3733  35.9512   C         1 RES1   0.0000
  1468 C3      14.2184  10.3733  26.2883   C         1 RES1   0.0000
  1469 C3      27.2746  10.3733  26.2883   C         1 RES1   0.0000
  1470 C3      27.2746  10.3733  35.9512   C         1 RES1   0.0000
  1471 C3      14.2184   5.5418  31.1198   C         1 RES1   0.0000
  1472 C3      14.2184  15.2047  31.1198   C         1 RES1   0.0000
  1473 C3      27.2746  15.2047  31.1198   C         1 RES1   0.0000
  1474 C3      27.2746   5.5418  31.1198   C         1 RES1   0.0000
  1475 C3      15.9151   3.8452  31.1198   C         1 RES1   0.0000
  1476 C3      25.5779   3.8452  31.1198   C         1 RES1   0.0000
  1477 C3      25.5779  16.9013  31.1198   C         1 RES1   0.0000
  1478 C3      15.9151  16.9013  31.1198   C         1 RES1   0.0000
  1479 Zr      20.7465  31.1198  12.8576   Z         1 RES1   0.0000
  1480 O1      22.6967  31.1198  13.9049   O         1 RES1   0.0000
  1481 C2      24.9537  31.1198  14.5804   C         1 RES1   0.0000
  1482 C3      26.2883  31.1198  14.2184   C         1 RES1   0.0000
  1483 H1      26.5327  31.1198  13.3006   H         1 RES1   0.0000
  1484 O3      19.6988  30.0721  11.4209   O         1 RES1   0.0000
  1485 C1      23.8956  31.1198  13.5224   C         1 RES1   0.0000
  1486 O1      18.7963  31.1198  13.9049   O         1 RES1   0.0000
  1487 C2      16.5393  31.1198  14.5804   C         1 RES1   0.0000
  1488 C3      15.2047  31.1198  14.2184   C         1 RES1   0.0000
  1489 H1      14.9603  31.1198  13.3006   H         1 RES1   0.0000
  1490 O3      21.7942  32.1674  11.4209   O         1 RES1   0.0000
  1491 C1      17.5974  31.1198  13.5224   C         1 RES1   0.0000
  1492 Zr      23.2309  31.1198  10.3733   Z         1 RES1   0.0000
  1493 O1      24.2782  33.0699  10.3733   O         1 RES1   0.0000
  1494 C2      24.9537  35.3269  10.3733   C         1 RES1   0.0000
  1495 C3      24.5917  36.6616  10.3733   C         1 RES1   0.0000
  1496 H1      23.6738  36.9059  10.3733   H         1 RES1   0.0000
  1497 O3      21.7942  30.0721   9.3256   O         1 RES1   0.0000
  1498 C1      23.8956  34.2689  10.3733   C         1 RES1   0.0000
  1499 O1      24.2782  29.1696  10.3733   O         1 RES1   0.0000
  1500 C2      24.9537  26.9126  10.3733   C         1 RES1   0.0000
  1501 C3      24.5917  25.5779  10.3733   C         1 RES1   0.0000
  1502 H1      23.6738  25.3336  10.3733   H         1 RES1   0.0000
  1503 C1      23.8956  27.9706  10.3733   C         1 RES1   0.0000
  1504 Zr      18.2621  31.1198  10.3733   Z         1 RES1   0.0000
  1505 O1      17.2148  29.1696  10.3733   O         1 RES1   0.0000
  1506 C2      16.5393  26.9126  10.3733   C         1 RES1   0.0000
  1507 C3      16.9013  25.5779  10.3733   C         1 RES1   0.0000
  1508 H1      17.8192  25.3336  10.3733   H         1 RES1   0.0000
  1509 O3      19.6988  32.1674   9.3256   O         1 RES1   0.0000
  1510 C1      17.5974  27.9706  10.3733   C         1 RES1   0.0000
  1511 O1      17.2148  33.0699  10.3733   O         1 RES1   0.0000
  1512 C2      16.5393  35.3269  10.3733   C         1 RES1   0.0000
  1513 C3      16.9013  36.6616  10.3733   C         1 RES1   0.0000
  1514 H1      17.8192  36.9059  10.3733   H         1 RES1   0.0000
  1515 C1      17.5974  34.2689  10.3733   C         1 RES1   0.0000
  1516 Zr      20.7465  33.6041  10.3733   Z         1 RES1   0.0000
  1517 O1      20.7465  34.6514  12.3234   O         1 RES1   0.0000
  1518 C2      20.7465  35.3269  14.5804   C         1 RES1   0.0000
  1519 H1      20.7465  34.0471  16.1594   H         1 RES1   0.0000
  1520 C1      20.7465  34.2689  13.5224   C         1 RES1   0.0000
  1521 O1      20.7465  34.6514   8.4231   O         1 RES1   0.0000
  1522 C2      20.7465  35.3269   6.1661   C         1 RES1   0.0000
  1523 H1      20.7465  34.0471   4.5871   H         1 RES1   0.0000
  1524 C1      20.7465  34.2689   7.2241   C         1 RES1   0.0000
  1525 Zr      20.7465  28.6354  10.3733   Z         1 RES1   0.0000
  1526 O1      20.7465  27.5881   8.4231   O         1 RES1   0.0000
  1527 C2      20.7465  26.9126   6.1661   C         1 RES1   0.0000
  1528 H1      20.7465  28.1924   4.5871   H         1 RES1   0.0000
  1529 C1      20.7465  27.9706   7.2241   C         1 RES1   0.0000
  1530 O1      20.7465  27.5881  12.3234   O         1 RES1   0.0000
  1531 C2      20.7465  26.9126  14.5804   C         1 RES1   0.0000
  1532 H1      20.7465  28.1924  16.1594   H         1 RES1   0.0000
  1533 C1      20.7465  27.9706  13.5224   C         1 RES1   0.0000
  1534 Zr      20.7465  31.1198   7.8889   Z         1 RES1   0.0000
  1535 O1      20.7465  33.0699   6.8416   O         1 RES1   0.0000
  1536 H1      20.7465  36.9059   7.4459   H         1 RES1   0.0000
  1537 O3      19.6988  30.0721   9.3256   O         1 RES1   0.0000
  1538 O1      20.7465  29.1696   6.8416   O         1 RES1   0.0000
  1539 H1      20.7465  25.3336   7.4459   H         1 RES1   0.0000
  1540 O3      21.7942  32.1674   9.3256   O         1 RES1   0.0000
  1541 O1      20.7465  29.1696  13.9049   O         1 RES1   0.0000
  1542 H1      20.7465  25.3336  13.3006   H         1 RES1   0.0000
  1543 O3      19.6988  32.1674  11.4209   O         1 RES1   0.0000
  1544 O1      20.7465  33.0699  13.9049   O         1 RES1   0.0000
  1545 H1      20.7465  36.9059  13.3006   H         1 RES1   0.0000
  1546 O3      21.7942  30.0721  11.4209   O         1 RES1   0.0000
  1547 O1      22.6967  34.6514  10.3733   O         1 RES1   0.0000
  1548 C3      26.2883  34.9649  10.3733   C         1 RES1   0.0000
  1549 H1      26.5327  34.0471  10.3733   H         1 RES1   0.0000
  1550 O1      18.7963  34.6514  10.3733   O         1 RES1   0.0000
  1551 C3      15.2047  34.9649  10.3733   C         1 RES1   0.0000
  1552 H1      14.9603  34.0471  10.3733   H         1 RES1   0.0000
  1553 O1      18.7963  27.5881  10.3733   O         1 RES1   0.0000
  1554 C3      15.2047  27.2746  10.3733   C         1 RES1   0.0000
  1555 H1      14.9603  28.1924  10.3733   H         1 RES1   0.0000
  1556 O1      22.6967  27.5881  10.3733   O         1 RES1   0.0000
  1557 C3      26.2883  27.2746  10.3733   C         1 RES1   0.0000
  1558 H1      26.5327  28.1924  10.3733   H         1 RES1   0.0000
  1559 O1      24.2782  31.1198   8.4231   O         1 RES1   0.0000
  1560 C2      24.9537  31.1198   6.1661   C         1 RES1   0.0000
  1561 C3      24.5917  31.1198   4.8314   C         1 RES1   0.0000
  1562 H1      23.6738  31.1198   4.5871   H         1 RES1   0.0000
  1563 C1      23.8956  31.1198   7.2241   C         1 RES1   0.0000
  1564 O1      24.2782  31.1198  12.3234   O         1 RES1   0.0000
  1565 C3      24.5917  31.1198  15.9151   C         1 RES1   0.0000
  1566 H1      23.6738  31.1198  16.1594   H         1 RES1   0.0000
  1567 O1      17.2148  31.1198  12.3234   O         1 RES1   0.0000
  1568 C3      16.9013  31.1198  15.9151   C         1 RES1   0.0000
  1569 H1      17.8192  31.1198  16.1594   H         1 RES1   0.0000
  1570 O1      17.2148  31.1198   8.4231   O         1 RES1   0.0000
  1571 C2      16.5393  31.1198   6.1661   C         1 RES1   0.0000
  1572 C3      16.9013  31.1198   4.8314   C         1 RES1   0.0000
  1573 H1      17.8192  31.1198   4.5871   H         1 RES1   0.0000
  1574 C1      17.5974  31.1198   7.2241   C         1 RES1   0.0000
  1575 O1      18.7963  31.1198   6.8416   O         1 RES1   0.0000
  1576 C3      15.2047  31.1198   6.5281   C         1 RES1   0.0000
  1577 H1      14.9603  31.1198   7.4459   H         1 RES1   0.0000
  1578 O1      22.6967  31.1198   6.8416   O         1 RES1   0.0000
  1579 C3      26.2883  31.1198   6.5281   C         1 RES1   0.0000
  1580 H1      26.5327  31.1198   7.4459   H         1 RES1   0.0000
  1581 C3      15.9151  31.1198   3.8452   C         1 RES1   0.0000
  1582 C3      25.5779  31.1198   3.8452   C         1 RES1   0.0000
  1583 C3      25.5779  31.1198  16.9013   C         1 RES1   0.0000
  1584 C3      15.9151  31.1198  16.9013   C         1 RES1   0.0000
  1585 C3      14.2184  31.1198  15.2047   C         1 RES1   0.0000
  1586 C3      14.2184  31.1198   5.5418   C         1 RES1   0.0000
  1587 C3      27.2746  31.1198   5.5418   C         1 RES1   0.0000
  1588 C3      27.2746  31.1198  15.2047   C         1 RES1   0.0000
  1589 C3      14.2184  26.2883  10.3733   C         1 RES1   0.0000
  1590 C3      14.2184  35.9512  10.3733   C         1 RES1   0.0000
  1591 C3      27.2746  35.9512  10.3733   C         1 RES1   0.0000
  1592 C3      27.2746  26.2883  10.3733   C         1 RES1   0.0000
  1593 C3      15.9151  24.5917  10.3733   C         1 RES1   0.0000
  1594 C3      25.5779  24.5917  10.3733   C         1 RES1   0.0000
  1595 C3      25.5779  37.6478  10.3733   C         1 RES1   0.0000
  1596 C3      15.9151  37.6478  10.3733   C         1 RES1   0.0000
  1597 Zr      20.7465  31.1198  33.6041   Z         1 RES1   0.0000
  1598 O1      22.6967  31.1198  34.6514   O         1 RES1   0.0000
  1599 C2      24.9537  31.1198  35.3269   C         1 RES1   0.0000
  1600 C3      26.2883  31.1198  34.9649   C         1 RES1   0.0000
  1601 H1      26.5327  31.1198  34.0471   H         1 RES1   0.0000
  1602 O3      19.6988  30.0721  32.1674   O         1 RES1   0.0000
  1603 C1      23.8956  31.1198  34.2689   C         1 RES1   0.0000
  1604 O1      18.7963  31.1198  34.6514   O         1 RES1   0.0000
  1605 C2      16.5393  31.1198  35.3269   C         1 RES1   0.0000
  1606 C3      15.2047  31.1198  34.9649   C         1 RES1   0.0000
  1607 H1      14.9603  31.1198  34.0471   H         1 RES1   0.0000
  1608 O3      21.7942  32.1674  32.1674   O         1 RES1   0.0000
  1609 C1      17.5974  31.1198  34.2689   C         1 RES1   0.0000
  1610 Zr      23.2309  31.1198  31.1198   Z         1 RES1   0.0000
  1611 O1      24.2782  33.0699  31.1198   O         1 RES1   0.0000
  1612 C2      24.9537  35.3269  31.1198   C         1 RES1   0.0000
  1613 C3      24.5917  36.6616  31.1198   C         1 RES1   0.0000
  1614 H1      23.6738  36.9059  31.1198   H         1 RES1   0.0000
  1615 O3      21.7942  30.0721  30.0721   O         1 RES1   0.0000
  1616 C1      23.8956  34.2689  31.1198   C         1 RES1   0.0000
  1617 O1      24.2782  29.1696  31.1198   O         1 RES1   0.0000
  1618 C2      24.9537  26.9126  31.1198   C         1 RES1   0.0000
  1619 C3      24.5917  25.5779  31.1198   C         1 RES1   0.0000
  1620 H1      23.6738  25.3336  31.1198   H         1 RES1   0.0000
  1621 C1      23.8956  27.9706  31.1198   C         1 RES1   0.0000
  1622 Zr      18.2621  31.1198  31.1198   Z         1 RES1   0.0000
  1623 O1      17.2148  29.1696  31.1198   O         1 RES1   0.0000
  1624 C2      16.5393  26.9126  31.1198   C         1 RES1   0.0000
  1625 C3      16.9013  25.5779  31.1198   C         1 RES1   0.0000
  1626 H1      17.8192  25.3336  31.1198   H         1 RES1   0.0000
  1627 O3      19.6988  32.1674  30.0721   O         1 RES1   0.0000
  1628 C1      17.5974  27.9706  31.1198   C         1 RES1   0.0000
  1629 O1      17.2148  33.0699  31.1198   O         1 RES1   0.0000
  1630 C2      16.5393  35.3269  31.1198   C         1 RES1   0.0000
  1631 C3      16.9013  36.6616  31.1198   C         1 RES1   0.0000
  1632 H1      17.8192  36.9059  31.1198   H         1 RES1   0.0000
  1633 C1      17.5974  34.2689  31.1198   C         1 RES1   0.0000
  1634 Zr      20.7465  33.6041  31.1198   Z         1 RES1   0.0000
  1635 O1      20.7465  34.6514  33.0699   O         1 RES1   0.0000
  1636 C2      20.7465  35.3269  35.3269   C         1 RES1   0.0000
  1637 H1      20.7465  34.0471  36.9059   H         1 RES1   0.0000
  1638 C1      20.7465  34.2689  34.2689   C         1 RES1   0.0000
  1639 O1      20.7465  34.6514  29.1696   O         1 RES1   0.0000
  1640 C2      20.7465  35.3269  26.9126   C         1 RES1   0.0000
  1641 H1      20.7465  34.0471  25.3336   H         1 RES1   0.0000
  1642 C1      20.7465  34.2689  27.9706   C         1 RES1   0.0000
  1643 Zr      20.7465  28.6354  31.1198   Z         1 RES1   0.0000
  1644 O1      20.7465  27.5881  29.1696   O         1 RES1   0.0000
  1645 C2      20.7465  26.9126  26.9126   C         1 RES1   0.0000
  1646 H1      20.7465  28.1924  25.3336   H         1 RES1   0.0000
  1647 C1      20.7465  27.9706  27.9706   C         1 RES1   0.0000
  1648 O1      20.7465  27.5881  33.0699   O         1 RES1   0.0000
  1649 C2      20.7465  26.9126  35.3269   C         1 RES1   0.0000
  1650 H1      20.7465  28.1924  36.9059   H         1 RES1   0.0000
  1651 C1      20.7465  27.9706  34.2689   C         1 RES1   0.0000
  1652 Zr      20.7465  31.1198  28.6354   Z         1 RES1   0.0000
  1653 O1      20.7465  33.0699  27.5881   O         1 RES1   0.0000
  1654 H1      20.7465  36.9059  28.1924   H         1 RES1   0.0000
  1655 O3      19.6988  30.0721  30.0721   O         1 RES1   0.0000
  1656 O1      20.7465  29.1696  27.5881   O         1 RES1   0.0000
  1657 H1      20.7465  25.3336  28.1924   H         1 RES1   0.0000
  1658 O3      21.7942  32.1674  30.0721   O         1 RES1   0.0000
  1659 O1      20.7465  29.1696  34.6514   O         1 RES1   0.0000
  1660 H1      20.7465  25.3336  34.0471   H         1 RES1   0.0000
  1661 O3      19.6988  32.1674  32.1674   O         1 RES1   0.0000
  1662 O1      20.7465  33.0699  34.6514   O         1 RES1   0.0000
  1663 H1      20.7465  36.9059  34.0471   H         1 RES1   0.0000
  1664 O3      21.7942  30.0721  32.1674   O         1 RES1   0.0000
  1665 O1      22.6967  34.6514  31.1198   O         1 RES1   0.0000
  1666 C3      26.2883  34.9649  31.1198   C         1 RES1   0.0000
  1667 H1      26.5327  34.0471  31.1198   H         1 RES1   0.0000
  1668 O1      18.7963  34.6514  31.1198   O         1 RES1   0.0000
  1669 C3      15.2047  34.9649  31.1198   C         1 RES1   0.0000
  1670 H1      14.9603  34.0471  31.1198   H         1 RES1   0.0000
  1671 O1      18.7963  27.5881  31.1198   O         1 RES1   0.0000
  1672 C3      15.2047  27.2746  31.1198   C         1 RES1   0.0000
  1673 H1      14.9603  28.1924  31.1198   H         1 RES1   0.0000
  1674 O1      22.6967  27.5881  31.1198   O         1 RES1   0.0000
  1675 C3      26.2883  27.2746  31.1198   C         1 RES1   0.0000
  1676 H1      26.5327  28.1924  31.1198   H         1 RES1   0.0000
  1677 O1      24.2782  31.1198  29.1696   O         1 RES1   0.0000
  1678 C2      24.9537  31.1198  26.9126   C         1 RES1   0.0000
  1679 C3      24.5917  31.1198  25.5779   C         1 RES1   0.0000
  1680 H1      23.6738  31.1198  25.3336   H         1 RES1   0.0000
  1681 C1      23.8956  31.1198  27.9706   C         1 RES1   0.0000
  1682 O1      24.2782  31.1198  33.0699   O         1 RES1   0.0000
  1683 C3      24.5917  31.1198  36.6616   C         1 RES1   0.0000
  1684 H1      23.6738  31.1198  36.9059   H         1 RES1   0.0000
  1685 O1      17.2148  31.1198  33.0699   O         1 RES1   0.0000
  1686 C3      16.9013  31.1198  36.6616   C         1 RES1   0.0000
  1687 H1      17.8192  31.1198  36.9059   H         1 RES1   0.0000
  1688 O1      17.2148  31.1198  29.1696   O         1 RES1   0.0000
  1689 C2      16.5393  31.1198  26.9126   C         1 RES1   0.0000
  1690 C3      16.9013  31.1198  25.5779   C         1 RES1   0.0000
  1691 H1      17.8192  31.1198  25.3336   H         1 RES1   0.0000
  1692 C1      17.5974  31.1198  27.9706   C         1 RES1   0.0000
  1693 O1      18.7963  31.1198  27.5881   O         1 RES1   0.0000
  1694 C3      15.2047  31.1198  27.2746   C         1 RES1   0.0000
  1695 H1      14.9603  31.1198  28.1924   H         1 RES1   0.0000
  1696 O1      22.6967  31.1198  27.5881   O         1 RES1   0.0000
  1697 C3      26.2883  31.1198  27.2746   C         1 RES1   0.0000
  1698 H1      26.5327  31.1198  28.1924   H         1 RES1   0.0000
  1699 C3      15.9151  31.1198  24.5917   C         1 RES1   0.0000
  1700 C3      25.5779  31.1198  24.5917   C         1 RES1   0.0000
  1701 C3      25.5779  31.1198  37.6478   C         1 RES1   0.0000
  1702 C3      15.9151  31.1198  37.6478   C         1 RES1   0.0000
  1703 C3      14.2184  31.1198  35.9512   C         1 RES1   0.0000
  1704 C3      14.2184  31.1198  26.2883   C         1 RES1   0.0000
  1705 C3      27.2746  31.1198  26.2883   C         1 RES1   0.0000
  1706 C3      27.2746  31.1198  35.9512   C         1 RES1   0.0000
  1707 C3      14.2184  26.2883  31.1198   C         1 RES1   0.0000
  1708 C3      14.2184  35.9512  31.1198   C         1 RES1   0.0000
  1709 C3      27.2746  35.9512  31.1198   C         1 RES1   0.0000
  1710 C3      27.2746  26.2883  31.1198   C         1 RES1   0.0000
  1711 C3      15.9151  24.5917  31.1198   C         1 RES1   0.0000
  1712 C3      25.5779  24.5917  31.1198   C         1 RES1   0.0000
  1713 C3      25.5779  37.6478  31.1198   C         1 RES1   0.0000
  1714 C3      15.9151  37.6478  31.1198   C         1 RES1   0.0000
  1715 Zr      41.4930  10.3733  12.8576   Z         1 RES1   0.0000
  1716 O3      40.4453   9.3256  11.4209   O         1 RES1   0.0000
  1717 O1      39.5428  10.3733  13.9049   O         1 RES1   0.0000
  1718 C2      37.2858  10.3733  14.5804   C         1 RES1   0.0000
  1719 C3      35.9512  10.3733  14.2184   C         1 RES1   0.0000
  1720 H1      35.7068  10.3733  13.3006   H         1 RES1   0.0000
  1721 C1      38.3439  10.3733  13.5224   C         1 RES1   0.0000
  1722 Zr      39.0086  10.3733  10.3733   Z         1 RES1   0.0000
  1723 O1      37.9613   8.4231  10.3733   O         1 RES1   0.0000
  1724 C2      37.2858   6.1661  10.3733   C         1 RES1   0.0000
  1725 C3      37.6478   4.8314  10.3733   C         1 RES1   0.0000
  1726 H1      38.5657   4.5871  10.3733   H         1 RES1   0.0000
  1727 O3      40.4453  11.4209   9.3256   O         1 RES1   0.0000
  1728 C1      38.3439   7.2241  10.3733   C         1 RES1   0.0000
  1729 O1      37.9613  12.3234  10.3733   O         1 RES1   0.0000
  1730 C2      37.2858  14.5804  10.3733   C         1 RES1   0.0000
  1731 C3      37.6478  15.9151  10.3733   C         1 RES1   0.0000
  1732 H1      38.5657  16.1594  10.3733   H         1 RES1   0.0000
  1733 C1      38.3439  13.5224  10.3733   C         1 RES1   0.0000
  1734 Zr      41.4930  12.8576  10.3733   Z         1 RES1   0.0000
  1735 O1      41.4930  13.9049  12.3234   O         1 RES1   0.0000
  1736 C2      41.4930  14.5804  14.5804   C         1 RES1   0.0000
  1737 H1      41.4930  13.3006  16.1594   H         1 RES1   0.0000
  1738 C1      41.4930  13.5224  13.5224   C         1 RES1   0.0000
  1739 O1      41.4930  13.9049   8.4231   O         1 RES1   0.0000
  1740 C2      41.4930  14.5804   6.1661   C         1 RES1   0.0000
  1741 H1      41.4930  13.3006   4.5871   H         1 RES1   0.0000
  1742 C1      41.4930  13.5224   7.2241   C         1 RES1   0.0000
  1743 Zr      41.4930   7.8889  10.3733   Z         1 RES1   0.0000
  1744 O1      41.4930   6.8416   8.4231   O         1 RES1   0.0000
  1745 C2      41.4930   6.1661   6.1661   C         1 RES1   0.0000
  1746 H1      41.4930   7.4459   4.5871   H         1 RES1   0.0000
  1747 C1      41.4930   7.2241   7.2241   C         1 RES1   0.0000
  1748 O1      41.4930   6.8416  12.3234   O         1 RES1   0.0000
  1749 C2      41.4930   6.1661  14.5804   C         1 RES1   0.0000
  1750 H1      41.4930   7.4459  16.1594   H         1 RES1   0.0000
  1751 C1      41.4930   7.2241  13.5224   C         1 RES1   0.0000
  1752 Zr      41.4930  10.3733   7.8889   Z         1 RES1   0.0000
  1753 O1      41.4930  12.3234   6.8416   O         1 RES1   0.0000
  1754 H1      41.4930  16.1594   7.4459   H         1 RES1   0.0000
  1755 O3      40.4453   9.3256   9.3256   O         1 RES1   0.0000
  1756 O1      41.4930   8.4231   6.8416   O         1 RES1   0.0000
  1757 H1      41.4930   4.5871   7.4459   H         1 RES1   0.0000
  1758 O1      41.4930   8.4231  13.9049   O         1 RES1   0.0000
  1759 H1      41.4930   4.5871  13.3006   H         1 RES1   0.0000
  1760 O3      40.4453  11.4209  11.4209   O         1 RES1   0.0000
  1761 O1      41.4930  12.3234  13.9049   O         1 RES1   0.0000
  1762 H1      41.4930  16.1594  13.3006   H         1 RES1   0.0000
  1763 O1      39.5428  13.9049  10.3733   O         1 RES1   0.0000
  1764 C3      35.9512  14.2184  10.3733   C         1 RES1   0.0000
  1765 H1      35.7068  13.3006  10.3733   H         1 RES1   0.0000
  1766 O1      39.5428   6.8416  10.3733   O         1 RES1   0.0000
  1767 C3      35.9512   6.5281  10.3733   C         1 RES1   0.0000
  1768 H1      35.7068   7.4459  10.3733   H         1 RES1   0.0000
  1769 O1      37.9613  10.3733  12.3234   O         1 RES1   0.0000
  1770 C3      37.6478  10.3733  15.9151   C         1 RES1   0.0000
  1771 H1      38.5657  10.3733  16.1594   H         1 RES1   0.0000
  1772 O1      37.9613  10.3733   8.4231   O         1 RES1   0.0000
  1773 C2      37.2858  10.3733   6.1661   C         1 RES1   0.0000
  1774 C3      37.6478  10.3733   4.8314   C         1 RES1   0.0000
  1775 H1      38.5657  10.3733   4.5871   H         1 RES1   0.0000
  1776 C1      38.3439  10.3733   7.2241   C         1 RES1   0.0000
  1777 O1      39.5428  10.3733   6.8416   O         1 RES1   0.0000
  1778 C3      35.9512  10.3733   6.5281   C         1 RES1   0.0000
  1779 H1      35.7068  10.3733   7.4459   H         1 RES1   0.0000
  1780 C3      36.6616  10.3733   3.8452   C         1 RES1   0.0000
  1781 C3      36.6616  10.3733  16.9013   C         1 RES1   0.0000
  1782 C3      34.9649  10.3733  15.2047   C         1 RES1   0.0000
  1783 C3      34.9649  10.3733   5.5418   C         1 RES1   0.0000
  1784 C3      34.9649   5.5418  10.3733   C         1 RES1   0.0000
  1785 C3      34.9649  15.2047  10.3733   C         1 RES1   0.0000
  1786 C3      36.6616   3.8452  10.3733   C         1 RES1   0.0000
  1787 C3      36.6616  16.9013  10.3733   C         1 RES1   0.0000
  1788 Zr      41.4930  10.3733  33.6041   Z         1 RES1   0.0000
  1789 O3      40.4453   9.3256  32.1674   O         1 RES1   0.0000
  1790 O1      39.5428  10.3733  34.6514   O         1 RES1   0.0000
  1791 C2      37.2858  10.3733  35.3269   C         1 RES1   0.0000
  1792 C3      35.9512  10.3733  34.9649   C         1 RES1   0.0000
  1793 H1      35.7068  10.3733  34.0471   H         1 RES1   0.0000
  1794 C1      38.3439  10.3733  34.2689   C         1 RES1   0.0000
  1795 Zr      39.0086  10.3733  31.1198   Z         1 RES1   0.0000
  1796 O1      37.9613   8.4231  31.1198   O         1 RES1   0.0000
  1797 C2      37.2858   6.1661  31.1198   C         1 RES1   0.0000
  1798 C3      37.6478   4.8314  31.1198   C         1 RES1   0.0000
  1799 H1      38.5657   4.5871  31.1198   H         1 RES1   0.0000
  1800 O3      40.4453  11.4209  30.0721   O         1 RES1   0.0000
  1801 C1      38.3439   7.2241  31.1198   C         1 RES1   0.0000
  1802 O1      37.9613  12.3234  31.1198   O         1 RES1   0.0000
  1803 C2      37.2858  14.5804  31.1198   C         1 RES1   0.0000
  1804 C3      37.6478  15.9151  31.1198   C         1 RES1   0.0000
  1805 H1      38.5657  16.1594  31.1198   H         1 RES1   0.0000
  1806 C1      38.3439  13.5224  31.1198   C         1 RES1   0.0000
  1807 Zr      41.4930  12.8576  31.1198   Z         1 RES1   0.0000
  1808 O1      41.4930  13.9049  33.0699   O         1 RES1   0.0000
  1809 C2      41.4930  14.5804  35.3269   C         1 RES1   0.0000
  1810 H1      41.4930  13.3006  36.9059   H         1 RES1   0.0000
  1811 C1      41.4930  13.5224  34.2689   C         1 RES1   0.0000
  1812 O1      41.4930  13.9049  29.1696   O         1 RES1   0.0000
  1813 C2      41.4930  14.5804  26.9126   C         1 RES1   0.0000
  1814 H1      41.4930  13.3006  25.3336   H         1 RES1   0.0000
  1815 C1      41.4930  13.5224  27.9706   C         1 RES1   0.0000
  1816 Zr      41.4930   7.8889  31.1198   Z         1 RES1   0.0000
  1817 O1      41.4930   6.8416  29.1696   O         1 RES1   0.0000
  1818 C2      41.4930   6.1661  26.9126   C         1 RES1   0.0000
  1819 H1      41.4930   7.4459  25.3336   H         1 RES1   0.0000
  1820 C1      41.4930   7.2241  27.9706   C         1 RES1   0.0000
  1821 O1      41.4930   6.8416  33.0699   O         1 RES1   0.0000
  1822 C2      41.4930   6.1661  35.3269   C         1 RES1   0.0000
  1823 H1      41.4930   7.4459  36.9059   H         1 RES1   0.0000
  1824 C1      41.4930   7.2241  34.2689   C         1 RES1   0.0000
  1825 Zr      41.4930  10.3733  28.6354   Z         1 RES1   0.0000
  1826 O1      41.4930  12.3234  27.5881   O         1 RES1   0.0000
  1827 H1      41.4930  16.1594  28.1924   H         1 RES1   0.0000
  1828 O3      40.4453   9.3256  30.0721   O         1 RES1   0.0000
  1829 O1      41.4930   8.4231  27.5881   O         1 RES1   0.0000
  1830 H1      41.4930   4.5871  28.1924   H         1 RES1   0.0000
  1831 O1      41.4930   8.4231  34.6514   O         1 RES1   0.0000
  1832 H1      41.4930   4.5871  34.0471   H         1 RES1   0.0000
  1833 O3      40.4453  11.4209  32.1674   O         1 RES1   0.0000
  1834 O1      41.4930  12.3234  34.6514   O         1 RES1   0.0000
  1835 H1      41.4930  16.1594  34.0471   H         1 RES1   0.0000
  1836 O1      39.5428  13.9049  31.1198   O         1 RES1   0.0000
  1837 C3      35.9512  14.2184  31.1198   C         1 RES1   0.0000
  1838 H1      35.7068  13.3006  31.1198   H         1 RES1   0.0000
  1839 O1      39.5428   6.8416  31.1198   O         1 RES1   0.0000
  1840 C3      35.9512   6.5281  31.1198   C         1 RES1   0.0000
  1841 H1      35.7068   7.4459  31.1198   H         1 RES1   0.0000
  1842 O1      37.9613  10.3733  33.0699   O         1 RES1   0.0000
  1843 C3      37.6478  10.3733  36.6616   C         1 RES1   0.0000
  1844 H1      38.5657  10.3733  36.9059   H         1 RES1   0.0000
  1845 O1      37.9613  10.3733  29.1696   O         1 RES1   0.0000
  1846 C2      37.2858  10.3733  26.9126   C         1 RES1   0.0000
  1847 C3      37.6478  10.3733  25.5779   C         1 RES1   0.0000
  1848 H1      38.5657  10.3733  25.3336   H         1 RES1   0.0000
  1849 C1      38.3439  10.3733  27.9706   C         1 RES1   0.0000
  1850 O1      39.5428  10.3733  27.5881   O         1 RES1   0.0000
  1851 C3      35.9512  10.3733  27.2746   C         1 RES1   0.0000
  1852 H1      35.7068  10.3733  28.1924   H         1 RES1   0.0000
  1853 C3      36.6616  10.3733  24.5917   C         1 RES1   0.0000
  1854 C3      36.6616  10.3733  37.6478   C         1 RES1   0.0000
  1855 C3      34.9649  10.3733  35.9512   C         1 RES1   0.0000
  1856 C3      34.9649  10.3733  26.2883   C         1 RES1   0.0000
  1857 C3      34.9649   5.5418  31.1198   C         1 RES1   0.0000
  1858 C3      34.9649  15.2047  31.1198   C         1 RES1   0.0000
  1859 C3      36.6616   3.8452  31.1198   C         1 RES1   0.0000
  1860 C3      36.6616  16.9013  31.1198   C         1 RES1   0.0000
  1861 Zr      41.4930  31.1198  12.8576   Z         1 RES1   0.0000
  1862 O3      40.4453  30.0721  11.4209   O         1 RES1   0.0000
  1863 O1      39.5428  31.1198  13.9049   O         1 RES1   0.0000
  1864 C2      37.2858  31.1198  14.5804   C         1 RES1   0.0000
  1865 C3      35.9512  31.1198  14.2184   C         1 RES1   0.0000
  1866 H1      35.7068  31.1198  13.3006   H         1 RES1   0.0000
  1867 C1      38.3439  31.1198  13.5224   C         1 RES1   0.0000
  1868 Zr      39.0086  31.1198  10.3733   Z         1 RES1   0.0000
  1869 O1      37.9613  29.1696  10.3733   O         1 RES1   0.0000
  1870 C2      37.2858  26.9126  10.3733   C         1 RES1   0.0000
  1871 C3      37.6478  25.5779  10.3733   C         1 RES1   0.0000
  1872 H1      38.5657  25.3336  10.3733   H         1 RES1   0.0000
  1873 O3      40.4453  32.1674   9.3256   O         1 RES1   0.0000
  1874 C1      38.3439  27.9706  10.3733   C         1 RES1   0.0000
  1875 O1      37.9613  33.0699  10.3733   O         1 RES1   0.0000
  1876 C2      37.2858  35.3269  10.3733   C         1 RES1   0.0000
  1877 C3      37.6478  36.6616  10.3733   C         1 RES1   0.0000
  1878 H1      38.5657  36.9059  10.3733   H         1 RES1   0.0000
  1879 C1      38.3439  34.2689  10.3733   C         1 RES1   0.0000
  1880 Zr      41.4930  33.6041  10.3733   Z         1 RES1   0.0000
  1881 O1      41.4930  34.6514  12.3234   O         1 RES1   0.0000
  1882 C2      41.4930  35.3269  14.5804   C         1 RES1   0.0000
  1883 H1      41.4930  34.0471  16.1594   H         1 RES1   0.0000
  1884 C1      41.4930  34.2689  13.5224   C         1 RES1   0.0000
  1885 O1      41.4930  34.6514   8.4231   O         1 RES1   0.0000
  1886 C2      41.4930  35.3269   6.1661   C         1 RES1   0.0000
  1887 H1      41.4930  34.0471   4.5871   H         1 RES1   0.0000
  1888 C1      41.4930  34.2689   7.2241   C         1 RES1   0.0000
  1889 Zr      41.4930  28.6354  10.3733   Z         1 RES1   0.0000
  1890 O1      41.4930  27.5881   8.4231   O         1 RES1   0.0000
  1891 C2      41.4930  26.9126   6.1661   C         1 RES1   0.0000
  1892 H1      41.4930  28.1924   4.5871   H         1 RES1   0.0000
  1893 C1      41.4930  27.9706   7.2241   C         1 RES1   0.0000
  1894 O1      41.4930  27.5881  12.3234   O         1 RES1   0.0000
  1895 C2      41.4930  26.9126  14.5804   C         1 RES1   0.0000
  1896 H1      41.4930  28.1924  16.1594   H         1 RES1   0.0000
  1897 C1      41.4930  27.9706  13.5224   C         1 RES1   0.0000
  1898 Zr      41.4930  31.1198   7.8889   Z         1 RES1   0.0000
  1899 O1      41.4930  33.0699   6.8416   O         1 RES1   0.0000
  1900 H1      41.4930  36.9059   7.4459   H         1 RES1   0.0000
  1901 O3      40.4453  30.0721   9.3256   O         1 RES1   0.0000
  1902 O1      41.4930  29.1696   6.8416   O         1 RES1   0.0000
  1903 H1      41.4930  25.3336   7.4459   H         1 RES1   0.0000
  1904 O1      41.4930  29.1696  13.9049   O         1 RES1   0.0000
  1905 H1      41.4930  25.3336  13.3006   H         1 RES1   0.0000
  1906 O3      40.4453  32.1674  11.4209   O         1 RES1   0.0000
  1907 O1      41.4930  33.0699  13.9049   O         1 RES1   0.0000
  1908 H1      41.4930  36.9059  13.3006   H         1 RES1   0.0000
  1909 O1      39.5428  34.6514  10.3733   O         1 RES1   0.0000
  1910 C3      35.9512  34.9649  10.3733   C         1 RES1   0.0000
  1911 H1      35.7068  34.0471  10.3733   H         1 RES1   0.0000
  1912 O1      39.5428  27.5881  10.3733   O         1 RES1   0.0000
  1913 C3      35.9512  27.2746  10.3733   C         1 RES1   0.0000
  1914 H1      35.7068  28.1924  10.3733   H         1 RES1   0.0000
  1915 O1      37.9613  31.1198  12.3234   O         1 RES1   0.0000
  1916 C3      37.6478  31.1198  15.9151   C         1 RES1   0.0000
  1917 H1      38.5657  31.1198  16.1594   H         1 RES1   0.0000
  1918 O1      37.9613  31.1198   8.4231   O         1 RES1   0.0000
  1919 C2      37.2858  31.1198   6.1661   C         1 RES1   0.0000
  1920 C3      37.6478  31.1198   4.8314   C         1 RES1   0.0000
  1921 H1      38.5657  31.1198   4.5871   H         1 RES1   0.0000
  1922 C1      38.3439  31.1198   7.2241   C         1 RES1   0.0000
  1923 O1      39.5428  31.1198   6.8416   O         1 RES1   0.0000
  1924 C3      35.9512  31.1198   6.5281   C         1 RES1   0.0000
  1925 H1      35.7068  31.1198   7.4459   H         1 RES1   0.0000
  1926 C3      36.6616  31.1198   3.8452   C         1 RES1   0.0000
  1927 C3      36.6616  31.1198  16.9013   C         1 RES1   0.0000
  1928 C3      34.9649  31.1198  15.2047   C         1 RES1   0.0000
  1929 C3      34.9649  31.1198   5.5418   C         1 RES1   0.0000
  1930 C3      34.9649  26.2883  10.3733   C         1 RES1   0.0000
  1931 C3      34.9649  35.9512  10.3733   C         1 RES1   0.0000
  1932 C3      36.6616  24.5917  10.3733   C         1 RES1   0.0000
  1933 C3      36.6616  37.6478  10.3733   C         1 RES1   0.0000
  1934 Zr      41.4930  31.1198  33.6041   Z         1 RES1   0.0000
  1935 O3      40.4453  30.0721  32.1674   O         1 RES1   0.0000
  1936 O1      39.5428  31.1198  34.6514   O         1 RES1   0.0000
  1937 C2      37.2858  31.1198  35.3269   C         1 RES1   0.0000
  1938 C3      35.9512  31.1198  34.9649   C         1 RES1   0.0000
  1939 H1      35.7068  31.1198  34.0471   H         1 RES1   0.0000
  1940 C1      38.3439  31.1198  34.2689   C         1 RES1   0.0000
  1941 Zr      39.0086  31.1198  31.1198   Z         1 RES1   0.0000
  1942 O1      37.9613  29.1696  31.1198   O         1 RES1   0.0000
  1943 C2      37.2858  26.9126  31.1198   C         1 RES1   0.0000
  1944 C3      37.6478  25.5779  31.1198   C         1 RES1   0.0000
  1945 H1      38.5657  25.3336  31.1198   H         1 RES1   0.0000
  1946 O3      40.4453  32.1674  30.0721   O         1 RES1   0.0000
  1947 C1      38.3439  27.9706  31.1198   C         1 RES1   0.0000
  1948 O1      37.9613  33.0699  31.1198   O         1 RES1   0.0000
  1949 C2      37.2858  35.3269  31.1198   C         1 RES1   0.0000
  1950 C3      37.6478  36.6616  31.1198   C         1 RES1   0.0000
  1951 H1      38.5657  36.9059  31.1198   H         1 RES1   0.0000
  1952 C1      38.3439  34.2689  31.1198   C         1 RES1   0.0000
  1953 Zr      41.4930  33.6041  31.1198   Z         1 RES1   0.0000
  1954 O1      41.4930  34.6514  33.0699   O         1 RES1   0.0000
  1955 C2      41.4930  35.3269  35.3269   C         1 RES1   0.0000
  1956 H1      41.4930  34.0471  36.9059   H         1 RES1   0.0000
  1957 C1      41.4930  34.2689  34.2689   C         1 RES1   0.0000
  1958 O1      41.4930  34.6514  29.1696   O         1 RES1   0.0000
  1959 C2      41.4930  35.3269  26.9126   C         1 RES1   0.0000
  1960 H1      41.4930  34.0471  25.3336   H         1 RES1   0.0000
  1961 C1      41.4930  34.2689  27.9706   C         1 RES1   0.0000
  1962 Zr      41.4930  28.6354  31.1198   Z         1 RES1   0.0000
  1963 O1      41.4930  27.5881  29.1696   O         1 RES1   0.0000
  1964 C2      41.4930  26.9126  26.9126   C         1 RES1   0.0000
  1965 H1      41.4930  28.1924  25.3336   H         1 RES1   0.0000
  1966 C1      41.4930  27.9706  27.9706   C         1 RES1   0.0000
  1967 O1      41.4930  27.5881  33.0699   O         1 RES1   0.0000
  1968 C2      41.4930  26.9126  35.3269   C         1 RES1   0.0000
  1969 H1      41.4930  28.1924  36.9059   H         1 RES1   0.0000
  1970 C1      41.4930  27.9706  34.2689   C         1 RES1   0.0000
  1971 Zr      41.4930  31.1198  28.6354   Z         1 RES1   0.0000
  1972 O1      41.4930  33.0699  27.5881   O         1 RES1   0.0000
  1973 H1      41.4930  36.9059  28.1924   H         1 RES1   0.0000
  1974 O3      40.4453  30.0721  30.0721   O         1 RES1   0.0000
  1975 O1      41.4930  29.1696  27.5881   O         1 RES1   0.0000
  1976 H1      41.4930  25.3336  28.1924   H         1 RES1   0.0000
  1977 O1      41.4930  29.1696  34.6514   O         1 RES1   0.0000
  1978 H1      41.4930  25.3336  34.0471   H         1 RES1   0.0000
  1979 O3      40.4453  32.1674  32.1674   O         1 RES1   0.0000
  1980 O1      41.4930  33.0699  34.6514   O         1 RES1   0.0000
  1981 H1      41.4930  36.9059  34.0471   H         1 RES1   0.0000
  1982 O1      39.5428  34.6514  31.1198   O         1 RES1   0.0000
  1983 C3      35.9512  34.9649  31.1198   C         1 RES1   0.0000
  1984 H1      35.7068  34.0471  31.1198   H         1 RES1   0.0000
  1985 O1      39.5428  27.5881  31.1198   O         1 RES1   0.0000
  1986 C3      35.9512  27.2746  31.1198   C         1 RES1   0.0000
  1987 H1      35.7068  28.1924  31.1198   H         1 RES1   0.0000
  1988 O1      37.9613  31.1198  33.0699   O         1 RES1   0.0000
  1989 C3      37.6478  31.1198  36.6616   C         1 RES1   0.0000
  1990 H1      38.5657  31.1198  36.9059   H         1 RES1   0.0000
  1991 O1      37.9613  31.1198  29.1696   O         1 RES1   0.0000
  1992 C2      37.2858  31.1198  26.9126   C         1 RES1   0.0000
  1993 C3      37.6478  31.1198  25.5779   C         1 RES1   0.0000
  1994 H1      38.5657  31.1198  25.3336   H         1 RES1   0.0000
  1995 C1      38.3439  31.1198  27.9706   C         1 RES1   0.0000
  1996 O1      39.5428  31.1198  27.5881   O         1 RES1   0.0000
  1997 C3      35.9512  31.1198  27.2746   C         1 RES1   0.0000
  1998 H1      35.7068  31.1198  28.1924   H         1 RES1   0.0000
  1999 C3      36.6616  31.1198  24.5917   C         1 RES1   0.0000
  2000 C3      36.6616  31.1198  37.6478   C         1 RES1   0.0000
  2001 C3      34.9649  31.1198  35.9512   C         1 RES1   0.0000
  2002 C3      34.9649  31.1198  26.2883   C         1 RES1   0.0000
  2003 C3      34.9649  26.2883  31.1198   C         1 RES1   0.0000
  2004 C3      34.9649  35.9512  31.1198   C         1 RES1   0.0000
  2005 C3      36.6616  24.5917  31.1198   C         1 RES1   0.0000
  2006 C3      36.6616  37.6478  31.1198   C         1 RES1   0.0000
  2007 O3      11.4209   1.0477  11.4209   O         1 RES1   0.0000
  2008 O1      13.9049   1.9502  10.3733   O         1 RES1   0.0000
  2009 C2      14.5804   4.2072  10.3733   C         1 RES1   0.0000
  2010 H1      13.3006   5.7862  10.3733   H         1 RES1   0.0000
  2011 C1      13.5224   3.1491  10.3733   C         1 RES1   0.0000
  2012 O3       9.3256   1.0477   9.3256   O         1 RES1   0.0000
  2013 O1       6.8416   1.9502  10.3733   O         1 RES1   0.0000
  2014 C2       6.1661   4.2072  10.3733   C         1 RES1   0.0000
  2015 H1       7.4459   5.7862  10.3733   H         1 RES1   0.0000
  2016 C1       7.2241   3.1491  10.3733   C         1 RES1   0.0000
  2017 Zr      10.3733   2.4844  10.3733   Z         1 RES1   0.0000
  2018 O1      10.3733   3.5317  12.3234   O         1 RES1   0.0000
  2019 C2      10.3733   4.2072  14.5804   C         1 RES1   0.0000
  2020 C3      10.3733   3.8452  15.9151   C         1 RES1   0.0000
  2021 H1      10.3733   2.9273  16.1594   H         1 RES1   0.0000
  2022 C1      10.3733   3.1491  13.5224   C         1 RES1   0.0000
  2023 O1      10.3733   3.5317   8.4231   O         1 RES1   0.0000
  2024 C2      10.3733   4.2072   6.1661   C         1 RES1   0.0000
  2025 C3      10.3733   3.8452   4.8314   C         1 RES1   0.0000
  2026 H1      10.3733   2.9273   4.5871   H         1 RES1   0.0000
  2027 C1      10.3733   3.1491   7.2241   C         1 RES1   0.0000
  2028 O1      10.3733   1.9502   6.8416   O         1 RES1   0.0000
  2029 C3      10.3733   5.5418   6.5281   C         1 RES1   0.0000
  2030 H1      10.3733   5.7862   7.4459   H         1 RES1   0.0000
  2031 O3      11.4209   1.0477   9.3256   O         1 RES1   0.0000
  2032 O3       9.3256   1.0477  11.4209   O         1 RES1   0.0000
  2033 O1      10.3733   1.9502  13.9049   O         1 RES1   0.0000
  2034 C3      10.3733   5.5418  14.2184   C         1 RES1   0.0000
  2035 H1      10.3733   5.7862  13.3006   H         1 RES1   0.0000
  2036 O1      12.3234   3.5317  10.3733   O         1 RES1   0.0000
  2037 H1      16.1594   2.9273  10.3733   H         1 RES1   0.0000
  2038 O1       8.4231   3.5317  10.3733   O         1 RES1   0.0000
  2039 H1       4.5871   2.9273  10.3733   H         1 RES1   0.0000
  2040 C3      10.3733   6.5281  15.2047   C         1 RES1   0.0000
  2041 C3      10.3733   6.5281   5.5418   C         1 RES1   0.0000
  2042 C3      10.3733   4.8314  16.9013   C         1 RES1   0.0000
  2043 C3      10.3733   4.8314   3.8452   C         1 RES1   0.0000
  2044 O3      11.4209   1.0477  32.1674   O         1 RES1   0.0000
  2045 O1      13.9049   1.9502  31.1198   O         1 RES1   0.0000
  2046 C2      14.5804   4.2072  31.1198   C         1 RES1   0.0000
  2047 H1      13.3006   5.7862  31.1198   H         1 RES1   0.0000
  2048 C1      13.5224   3.1491  31.1198   C         1 RES1   0.0000
  2049 O3       9.3256   1.0477  30.0721   O         1 RES1   0.0000
  2050 O1       6.8416   1.9502  31.1198   O         1 RES1   0.0000
  2051 C2       6.1661   4.2072  31.1198   C         1 RES1   0.0000
  2052 H1       7.4459   5.7862  31.1198   H         1 RES1   0.0000
  2053 C1       7.2241   3.1491  31.1198   C         1 RES1   0.0000
  2054 Zr      10.3733   2.4844  31.1198   Z         1 RES1   0.0000
  2055 O1      10.3733   3.5317  33.0699   O         1 RES1   0.0000
  2056 C2      10.3733   4.2072  35.3269   C         1 RES1   0.0000
  2057 C3      10.3733   3.8452  36.6616   C         1 RES1   0.0000
  2058 H1      10.3733   2.9273  36.9059   H         1 RES1   0.0000
  2059 C1      10.3733   3.1491  34.2689   C         1 RES1   0.0000
  2060 O1      10.3733   3.5317  29.1696   O         1 RES1   0.0000
  2061 C2      10.3733   4.2072  26.9126   C         1 RES1   0.0000
  2062 C3      10.3733   3.8452  25.5779   C         1 RES1   0.0000
  2063 H1      10.3733   2.9273  25.3336   H         1 RES1   0.0000
  2064 C1      10.3733   3.1491  27.9706   C         1 RES1   0.0000
  2065 O1      10.3733   1.9502  27.5881   O         1 RES1   0.0000
  2066 C3      10.3733   5.5418  27.2746   C         1 RES1   0.0000
  2067 H1      10.3733   5.7862  28.1924   H         1 RES1   0.0000
  2068 O3      11.4209   1.0477  30.0721   O         1 RES1   0.0000
  2069 O3       9.3256   1.0477  32.1674   O         1 RES1   0.0000
  2070 O1      10.3733   1.9502  34.6514   O         1 RES1   0.0000
  2071 C3      10.3733   5.5418  34.9649   C         1 RES1   0.0000
  2072 H1      10.3733   5.7862  34.0471   H         1 RES1   0.0000
  2073 O1      12.3234   3.5317  31.1198   O         1 RES1   0.0000
  2074 H1      16.1594   2.9273  31.1198   H         1 RES1   0.0000
  2075 O1       8.4231   3.5317  31.1198   O         1 RES1   0.0000
  2076 H1       4.5871   2.9273  31.1198   H         1 RES1   0.0000
  2077 C3      10.3733   6.5281  35.9512   C         1 RES1   0.0000
  2078 C3      10.3733   6.5281  26.2883   C         1 RES1   0.0000
  2079 C3      10.3733   4.8314  37.6478   C         1 RES1   0.0000
  2080 C3      10.3733   4.8314  24.5917   C         1 RES1   0.0000
  2081 Zr      10.3733  20.7465  12.8576   Z         1 RES1   0.0000
  2082 O1      12.3234  20.7465  13.9049   O         1 RES1   0.0000
  2083 C2      14.5804  20.7465  14.5804   C         1 RES1   0.0000
  2084 H1      16.1594  20.7465  13.3006   H         1 RES1   0.0000
  2085 O3       9.3256  19.6988  11.4209   O         1 RES1   0.0000
  2086 C1      13.5224  20.7465  13.5224   C         1 RES1   0.0000
  2087 O1       8.4231  20.7465  13.9049   O         1 RES1   0.0000
  2088 C2       6.1661  20.7465  14.5804   C         1 RES1   0.0000
  2089 H1       4.5871  20.7465  13.3006   H         1 RES1   0.0000
  2090 O3      11.4209  21.7942  11.4209   O         1 RES1   0.0000
  2091 C1       7.2241  20.7465  13.5224   C         1 RES1   0.0000
  2092 Zr      12.8576  20.7465  10.3733   Z         1 RES1   0.0000
  2093 O1      13.9049  22.6967  10.3733   O         1 RES1   0.0000
  2094 C2      14.5804  24.9537  10.3733   C         1 RES1   0.0000
  2095 H1      13.3006  26.5327  10.3733   H         1 RES1   0.0000
  2096 O3      11.4209  19.6988   9.3256   O         1 RES1   0.0000
  2097 C1      13.5224  23.8956  10.3733   C         1 RES1   0.0000
  2098 O1      13.9049  18.7963  10.3733   O         1 RES1   0.0000
  2099 C2      14.5804  16.5393  10.3733   C         1 RES1   0.0000
  2100 H1      13.3006  14.9603  10.3733   H         1 RES1   0.0000
  2101 C1      13.5224  17.5974  10.3733   C         1 RES1   0.0000
  2102 Zr       7.8889  20.7465  10.3733   Z         1 RES1   0.0000
  2103 O1       6.8416  18.7963  10.3733   O         1 RES1   0.0000
  2104 C2       6.1661  16.5393  10.3733   C         1 RES1   0.0000
  2105 H1       7.4459  14.9603  10.3733   H         1 RES1   0.0000
  2106 O3       9.3256  21.7942   9.3256   O         1 RES1   0.0000
  2107 C1       7.2241  17.5974  10.3733   C         1 RES1   0.0000
  2108 O1       6.8416  22.6967  10.3733   O         1 RES1   0.0000
  2109 C2       6.1661  24.9537  10.3733   C         1 RES1   0.0000
  2110 H1       7.4459  26.5327  10.3733   H         1 RES1   0.0000
  2111 C1       7.2241  23.8956  10.3733   C         1 RES1   0.0000
  2112 Zr      10.3733  23.2309  10.3733   Z         1 RES1   0.0000
  2113 O1      10.3733  24.2782  12.3234   O         1 RES1   0.0000
  2114 C2      10.3733  24.9537  14.5804   C         1 RES1   0.0000
  2115 C3      10.3733  24.5917  15.9151   C         1 RES1   0.0000
  2116 H1      10.3733  23.6738  16.1594   H         1 RES1   0.0000
  2117 C1      10.3733  23.8956  13.5224   C         1 RES1   0.0000
  2118 O1      10.3733  24.2782   8.4231   O         1 RES1   0.0000
  2119 C2      10.3733  24.9537   6.1661   C         1 RES1   0.0000
  2120 C3      10.3733  24.5917   4.8314   C         1 RES1   0.0000
  2121 H1      10.3733  23.6738   4.5871   H         1 RES1   0.0000
  2122 C1      10.3733  23.8956   7.2241   C         1 RES1   0.0000
  2123 Zr      10.3733  18.2621  10.3733   Z         1 RES1   0.0000
  2124 O1      10.3733  17.2148   8.4231   O         1 RES1   0.0000
  2125 C2      10.3733  16.5393   6.1661   C         1 RES1   0.0000
  2126 C3      10.3733  16.9013   4.8314   C         1 RES1   0.0000
  2127 H1      10.3733  17.8192   4.5871   H         1 RES1   0.0000
  2128 C1      10.3733  17.5974   7.2241   C         1 RES1   0.0000
  2129 O1      10.3733  17.2148  12.3234   O         1 RES1   0.0000
  2130 C2      10.3733  16.5393  14.5804   C         1 RES1   0.0000
  2131 C3      10.3733  16.9013  15.9151   C         1 RES1   0.0000
  2132 H1      10.3733  17.8192  16.1594   H         1 RES1   0.0000
  2133 C1      10.3733  17.5974  13.5224   C         1 RES1   0.0000
  2134 Zr      10.3733  20.7465   7.8889   Z         1 RES1   0.0000
  2135 O1      10.3733  22.6967   6.8416   O         1 RES1   0.0000
  2136 C3      10.3733  26.2883   6.5281   C         1 RES1   0.0000
  2137 H1      10.3733  26.5327   7.4459   H         1 RES1   0.0000
  2138 O3       9.3256  19.6988   9.3256   O         1 RES1   0.0000
  2139 O1      10.3733  18.7963   6.8416   O         1 RES1   0.0000
  2140 C3      10.3733  15.2047   6.5281   C         1 RES1   0.0000
  2141 H1      10.3733  14.9603   7.4459   H         1 RES1   0.0000
  2142 O3      11.4209  21.7942   9.3256   O         1 RES1   0.0000
  2143 O1      10.3733  18.7963  13.9049   O         1 RES1   0.0000
  2144 C3      10.3733  15.2047  14.2184   C         1 RES1   0.0000
  2145 H1      10.3733  14.9603  13.3006   H         1 RES1   0.0000
  2146 O3       9.3256  21.7942  11.4209   O         1 RES1   0.0000
  2147 O1      10.3733  22.6967  13.9049   O         1 RES1   0.0000
  2148 C3      10.3733  26.2883  14.2184   C         1 RES1   0.0000
  2149 H1      10.3733  26.5327  13.3006   H         1 RES1   0.0000
  2150 O3      11.4209  19.6988  11.4209   O         1 RES1   0.0000
  2151 O1      12.3234  24.2782  10.3733   O         1 RES1   0.0000
  2152 H1      16.1594  23.6738  10.3733   H         1 RES1   0.0000
  2153 O1       8.4231  24.2782  10.3733   O         1 RES1   0.0000
  2154 H1       4.5871  23.6738  10.3733   H         1 RES1   0.0000
  2155 O1       8.4231  17.2148  10.3733   O         1 RES1   0.0000
  2156 H1       4.5871  17.8192  10.3733   H         1 RES1   0.0000
  2157 O1      12.3234  17.2148  10.3733   O         1 RES1   0.0000
  2158 H1      16.1594  17.8192  10.3733   H         1 RES1   0.0000
  2159 O1      13.9049  20.7465   8.4231   O         1 RES1   0.0000
  2160 C2      14.5804  20.7465   6.1661   C         1 RES1   0.0000
  2161 H1      13.3006  20.7465   4.5871   H         1 RES1   0.0000
  2162 C1      13.5224  20.7465   7.2241   C         1 RES1   0.0000
  2163 O1      13.9049  20.7465  12.3234   O         1 RES1   0.0000
  2164 H1      13.3006  20.7465  16.1594   H         1 RES1   0.0000
  2165 O1       6.8416  20.7465  12.3234   O         1 RES1   0.0000
  2166 H1       7.4459  20.7465  16.1594   H         1 RES1   0.0000
  2167 O1       6.8416  20.7465   8.4231   O         1 RES1   0.0000
  2168 C2       6.1661  20.7465   6.1661   C         1 RES1   0.0000
  2169 H1       7.4459  20.7465   4.5871   H         1 RES1   0.0000
  2170 C1       7.2241  20.7465   7.2241   C         1 RES1   0.0000
  2171 O1       8.4231  20.7465   6.8416   O         1 RES1   0.0000
  2172 H1       4.5871  20.7465   7.4459   H         1 RES1   0.0000
  2173 O1      12.3234  20.7465   6.8416   O         1 RES1   0.0000
  2174 H1      16.1594  20.7465   7.4459   H         1 RES1   0.0000
  2175 C3      10.3733  14.2184   5.5418   C         1 RES1   0.0000
  2176 C3      10.3733  14.2184  15.2047   C         1 RES1   0.0000
  2177 C3      10.3733  27.2746  15.2047   C         1 RES1   0.0000
  2178 C3      10.3733  27.2746   5.5418   C         1 RES1   0.0000
  2179 C3      10.3733  15.9151  16.9013   C         1 RES1   0.0000
  2180 C3      10.3733  25.5779  16.9013   C         1 RES1   0.0000
  2181 C3      10.3733  25.5779   3.8452   C         1 RES1   0.0000
  2182 C3      10.3733  15.9151   3.8452   C         1 RES1   0.0000
  2183 Zr      10.3733  20.7465  33.6041   Z         1 RES1   0.0000
  2184 O1      12.3234  20.7465  34.6514   O         1 RES1   0.0000
  2185 C2      14.5804  20.7465  35.3269   C         1 RES1   0.0000
  2186 H1      16.1594  20.7465  34.0471   H         1 RES1   0.0000
  2187 O3       9.3256  19.6988  32.1674   O         1 RES1   0.0000
  2188 C1      13.5224  20.7465  34.2689   C         1 RES1   0.0000
  2189 O1       8.4231  20.7465  34.6514   O         1 RES1   0.0000
  2190 C2       6.1661  20.7465  35.3269   C         1 RES1   0.0000
  2191 H1       4.5871  20.7465  34.0471   H         1 RES1   0.0000
  2192 O3      11.4209  21.7942  32.1674   O         1 RES1   0.0000
  2193 C1       7.2241  20.7465  34.2689   C         1 RES1   0.0000
  2194 Zr      12.8576  20.7465  31.1198   Z         1 RES1   0.0000
  2195 O1      13.9049  22.6967  31.1198   O         1 RES1   0.0000
  2196 C2      14.5804  24.9537  31.1198   C         1 RES1   0.0000
  2197 H1      13.3006  26.5327  31.1198   H         1 RES1   0.0000
  2198 O3      11.4209  19.6988  30.0721   O         1 RES1   0.0000
  2199 C1      13.5224  23.8956  31.1198   C         1 RES1   0.0000
  2200 O1      13.9049  18.7963  31.1198   O         1 RES1   0.0000
  2201 C2      14.5804  16.5393  31.1198   C         1 RES1   0.0000
  2202 H1      13.3006  14.9603  31.1198   H         1 RES1   0.0000
  2203 C1      13.5224  17.5974  31.1198   C         1 RES1   0.0000
  2204 Zr       7.8889  20.7465  31.1198   Z         1 RES1   0.0000
  2205 O1       6.8416  18.7963  31.1198   O         1 RES1   0.0000
  2206 C2       6.1661  16.5393  31.1198   C         1 RES1   0.0000
  2207 H1       7.4459  14.9603  31.1198   H         1 RES1   0.0000
  2208 O3       9.3256  21.7942  30.0721   O         1 RES1   0.0000
  2209 C1       7.2241  17.5974  31.1198   C         1 RES1   0.0000
  2210 O1       6.8416  22.6967  31.1198   O         1 RES1   0.0000
  2211 C2       6.1661  24.9537  31.1198   C         1 RES1   0.0000
  2212 H1       7.4459  26.5327  31.1198   H         1 RES1   0.0000
  2213 C1       7.2241  23.8956  31.1198   C         1 RES1   0.0000
  2214 Zr      10.3733  23.2309  31.1198   Z         1 RES1   0.0000
  2215 O1      10.3733  24.2782  33.0699   O         1 RES1   0.0000
  2216 C2      10.3733  24.9537  35.3269   C         1 RES1   0.0000
  2217 C3      10.3733  24.5917  36.6616   C         1 RES1   0.0000
  2218 H1      10.3733  23.6738  36.9059   H         1 RES1   0.0000
  2219 C1      10.3733  23.8956  34.2689   C         1 RES1   0.0000
  2220 O1      10.3733  24.2782  29.1696   O         1 RES1   0.0000
  2221 C2      10.3733  24.9537  26.9126   C         1 RES1   0.0000
  2222 C3      10.3733  24.5917  25.5779   C         1 RES1   0.0000
  2223 H1      10.3733  23.6738  25.3336   H         1 RES1   0.0000
  2224 C1      10.3733  23.8956  27.9706   C         1 RES1   0.0000
  2225 Zr      10.3733  18.2621  31.1198   Z         1 RES1   0.0000
  2226 O1      10.3733  17.2148  29.1696   O         1 RES1   0.0000
  2227 C2      10.3733  16.5393  26.9126   C         1 RES1   0.0000
  2228 C3      10.3733  16.9013  25.5779   C         1 RES1   0.0000
  2229 H1      10.3733  17.8192  25.3336   H         1 RES1   0.0000
  2230 C1      10.3733  17.5974  27.9706   C         1 RES1   0.0000
  2231 O1      10.3733  17.2148  33.0699   O         1 RES1   0.0000
  2232 C2      10.3733  16.5393  35.3269   C         1 RES1   0.0000
  2233 C3      10.3733  16.9013  36.6616   C         1 RES1   0.0000
  2234 H1      10.3733  17.8192  36.9059   H         1 RES1   0.0000
  2235 C1      10.3733  17.5974  34.2689   C         1 RES1   0.0000
  2236 Zr      10.3733  20.7465  28.6354   Z         1 RES1   0.0000
  2237 O1      10.3733  22.6967  27.5881   O         1 RES1   0.0000
  2238 C3      10.3733  26.2883  27.2746   C         1 RES1   0.0000
  2239 H1      10.3733  26.5327  28.1924   H         1 RES1   0.0000
  2240 O3       9.3256  19.6988  30.0721   O         1 RES1   0.0000
  2241 O1      10.3733  18.7963  27.5881   O         1 RES1   0.0000
  2242 C3      10.3733  15.2047  27.2746   C         1 RES1   0.0000
  2243 H1      10.3733  14.9603  28.1924   H         1 RES1   0.0000
  2244 O3      11.4209  21.7942  30.0721   O         1 RES1   0.0000
  2245 O1      10.3733  18.7963  34.6514   O         1 RES1   0.0000
  2246 C3      10.3733  15.2047  34.9649   C         1 RES1   0.0000
  2247 H1      10.3733  14.9603  34.0471   H         1 RES1   0.0000
  2248 O3       9.3256  21.7942  32.1674   O         1 RES1   0.0000
  2249 O1      10.3733  22.6967  34.6514   O         1 RES1   0.0000
  2250 C3      10.3733  26.2883  34.9649   C         1 RES1   0.0000
  2251 H1      10.3733  26.5327  34.0471   H         1 RES1   0.0000
  2252 O3      11.4209  19.6988  32.1674   O         1 RES1   0.0000
  2253 O1      12.3234  24.2782  31.1198   O         1 RES1   0.0000
  2254 H1      16.1594  23.6738  31.1198   H         1 RES1   0.0000
  2255 O1       8.4231  24.2782  31.1198   O         1 RES1   0.0000
  2256 H1       4.5871  23.6738  31.1198   H         1 RES1   0.0000
  2257 O1       8.4231  17.2148  31.1198   O         1 RES1   0.0000
  2258 H1       4.5871  17.8192  31.1198   H         1 RES1   0.0000
  2259 O1      12.3234  17.2148  31.1198   O         1 RES1   0.0000
  2260 H1      16.1594  17.8192  31.1198   H         1 RES1   0.0000
  2261 O1      13.9049  20.7465  29.1696   O         1 RES1   0.0000
  2262 C2      14.5804  20.7465  26.9126   C         1 RES1   0.0000
  2263 H1      13.3006  20.7465  25.3336   H         1 RES1   0.0000
  2264 C1      13.5224  20.7465  27.9706   C         1 RES1   0.0000
  2265 O1      13.9049  20.7465  33.0699   O         1 RES1   0.0000
  2266 H1      13.3006  20.7465  36.9059   H         1 RES1   0.0000
  2267 O1       6.8416  20.7465  33.0699   O         1 RES1   0.0000
  2268 H1       7.4459  20.7465  36.9059   H         1 RES1   0.0000
  2269 O1       6.8416  20.7465  29.1696   O         1 RES1   0.0000
  2270 C2       6.1661  20.7465  26.9126   C         1 RES1   0.0000
  2271 H1       7.4459  20.7465  25.3336   H         1 RES1   0.0000
  2272 C1       7.2241  20.7465  27.9706   C         1 RES1   0.0000
  2273 O1       8.4231  20.7465  27.5881   O         1 RES1   0.0000
  2274 H1       4.5871  20.7465  28.1924   H         1 RES1   0.0000
  2275 O1      12.3234  20.7465  27.5881   O         1 RES1   0.0000
  2276 H1      16.1594  20.7465  28.1924   H         1 RES1   0.0000
  2277 C3      10.3733  14.2184  26.2883   C         1 RES1   0.0000
  2278 C3      10.3733  14.2184  35.9512   C         1 RES1   0.0000
  2279 C3      10.3733  27.2746  35.9512   C         1 RES1   0.0000
  2280 C3      10.3733  27.2746  26.2883   C         1 RES1   0.0000
  2281 C3      10.3733  15.9151  37.6478   C         1 RES1   0.0000
  2282 C3      10.3733  25.5779  37.6478   C         1 RES1   0.0000
  2283 C3      10.3733  25.5779  24.5917   C         1 RES1   0.0000
  2284 C3      10.3733  15.9151  24.5917   C         1 RES1   0.0000
  2285 Zr      10.3733  41.4930  12.8576   Z         1 RES1   0.0000
  2286 O1      12.3234  41.4930  13.9049   O         1 RES1   0.0000
  2287 C2      14.5804  41.4930  14.5804   C         1 RES1   0.0000
  2288 H1      16.1594  41.4930  13.3006   H         1 RES1   0.0000
  2289 O3       9.3256  40.4453  11.4209   O         1 RES1   0.0000
  2290 C1      13.5224  41.4930  13.5224   C         1 RES1   0.0000
  2291 O1       8.4231  41.4930  13.9049   O         1 RES1   0.0000
  2292 C2       6.1661  41.4930  14.5804   C         1 RES1   0.0000
  2293 H1       4.5871  41.4930  13.3006   H         1 RES1   0.0000
  2294 C1       7.2241  41.4930  13.5224   C         1 RES1   0.0000
  2295 Zr      12.8576  41.4930  10.3733   Z         1 RES1   0.0000
  2296 O3      11.4209  40.4453   9.3256   O         1 RES1   0.0000
  2297 O1      13.9049  39.5428  10.3733   O         1 RES1   0.0000
  2298 C2      14.5804  37.2858  10.3733   C         1 RES1   0.0000
  2299 H1      13.3006  35.7068  10.3733   H         1 RES1   0.0000
  2300 C1      13.5224  38.3439  10.3733   C         1 RES1   0.0000
  2301 Zr       7.8889  41.4930  10.3733   Z         1 RES1   0.0000
  2302 O1       6.8416  39.5428  10.3733   O         1 RES1   0.0000
  2303 C2       6.1661  37.2858  10.3733   C         1 RES1   0.0000
  2304 H1       7.4459  35.7068  10.3733   H         1 RES1   0.0000
  2305 C1       7.2241  38.3439  10.3733   C         1 RES1   0.0000
  2306 Zr      10.3733  39.0086  10.3733   Z         1 RES1   0.0000
  2307 O1      10.3733  37.9613   8.4231   O         1 RES1   0.0000
  2308 C2      10.3733  37.2858   6.1661   C         1 RES1   0.0000
  2309 C3      10.3733  37.6478   4.8314   C         1 RES1   0.0000
  2310 H1      10.3733  38.5657   4.5871   H         1 RES1   0.0000
  2311 C1      10.3733  38.3439   7.2241   C         1 RES1   0.0000
  2312 O1      10.3733  37.9613  12.3234   O         1 RES1   0.0000
  2313 C2      10.3733  37.2858  14.5804   C         1 RES1   0.0000
  2314 C3      10.3733  37.6478  15.9151   C         1 RES1   0.0000
  2315 H1      10.3733  38.5657  16.1594   H         1 RES1   0.0000
  2316 C1      10.3733  38.3439  13.5224   C         1 RES1   0.0000
  2317 Zr      10.3733  41.4930   7.8889   Z         1 RES1   0.0000
  2318 O3       9.3256  40.4453   9.3256   O         1 RES1   0.0000
  2319 O1      10.3733  39.5428   6.8416   O         1 RES1   0.0000
  2320 C3      10.3733  35.9512   6.5281   C         1 RES1   0.0000
  2321 H1      10.3733  35.7068   7.4459   H         1 RES1   0.0000
  2322 O1      10.3733  39.5428  13.9049   O         1 RES1   0.0000
  2323 C3      10.3733  35.9512  14.2184   C         1 RES1   0.0000
  2324 H1      10.3733  35.7068  13.3006   H         1 RES1   0.0000
  2325 O3      11.4209  40.4453  11.4209   O         1 RES1   0.0000
  2326 O1       8.4231  37.9613  10.3733   O         1 RES1   0.0000
  2327 H1       4.5871  38.5657  10.3733   H         1 RES1   0.0000
  2328 O1      12.3234  37.9613  10.3733   O         1 RES1   0.0000
  2329 H1      16.1594  38.5657  10.3733   H         1 RES1   0.0000
  2330 O1      13.9049  41.4930   8.4231   O         1 RES1   0.0000
  2331 C2      14.5804  41.4930   6.1661   C         1 RES1   0.0000
  2332 H1      13.3006  41.4930   4.5871   H         1 RES1   0.0000
  2333 C1      13.5224  41.4930   7.2241   C         1 RES1   0.0000
  2334 O1      13.9049  41.4930  12.3234   O         1 RES1   0.0000
  2335 H1      13.3006  41.4930  16.1594   H         1 RES1   0.0000
  2336 O1       6.8416  41.4930  12.3234   O         1 RES1   0.0000
  2337 H1       7.4459  41.4930  16.1594   H         1 RES1   0.0000
  2338 O1       6.8416  41.4930   8.4231   O         1 RES1   0.0000
  2339 C2       6.1661  41.4930   6.1661   C         1 RES1   0.0000
  2340 H1       7.4459  41.4930   4.5871   H         1 RES1   0.0000
  2341 C1       7.2241  41.4930   7.2241   C         1 RES1   0.0000
  2342 O1       8.4231  41.4930   6.8416   O         1 RES1   0.0000
  2343 H1       4.5871  41.4930   7.4459   H         1 RES1   0.0000
  2344 O1      12.3234  41.4930   6.8416   O         1 RES1   0.0000
  2345 H1      16.1594  41.4930   7.4459   H         1 RES1   0.0000
  2346 C3      10.3733  34.9649   5.5418   C         1 RES1   0.0000
  2347 C3      10.3733  34.9649  15.2047   C         1 RES1   0.0000
  2348 C3      10.3733  36.6616  16.9013   C         1 RES1   0.0000
  2349 C3      10.3733  36.6616   3.8452   C         1 RES1   0.0000
  2350 Zr      10.3733  41.4930  33.6041   Z         1 RES1   0.0000
  2351 O1      12.3234  41.4930  34.6514   O         1 RES1   0.0000
  2352 C2      14.5804  41.4930  35.3269   C         1 RES1   0.0000
  2353 H1      16.1594  41.4930  34.0471   H         1 RES1   0.0000
  2354 O3       9.3256  40.4453  32.1674   O         1 RES1   0.0000
  2355 C1      13.5224  41.4930  34.2689   C         1 RES1   0.0000
  2356 O1       8.4231  41.4930  34.6514   O         1 RES1   0.0000
  2357 C2       6.1661  41.4930  35.3269   C         1 RES1   0.0000
  2358 H1       4.5871  41.4930  34.0471   H         1 RES1   0.0000
  2359 C1       7.2241  41.4930  34.2689   C         1 RES1   0.0000
  2360 Zr      12.8576  41.4930  31.1198   Z         1 RES1   0.0000
  2361 O3      11.4209  40.4453  30.0721   O         1 RES1   0.0000
  2362 O1      13.9049  39.5428  31.1198   O         1 RES1   0.0000
  2363 C2      14.5804  37.2858  31.1198   C         1 RES1   0.0000
  2364 H1      13.3006  35.7068  31.1198   H         1 RES1   0.0000
  2365 C1      13.5224  38.3439  31.1198   C         1 RES1   0.0000
  2366 Zr       7.8889  41.4930  31.1198   Z         1 RES1   0.0000
  2367 O1       6.8416  39.5428  31.1198   O         1 RES1   0.0000
  2368 C2       6.1661  37.2858  31.1198   C         1 RES1   0.0000
  2369 H1       7.4459  35.7068  31.1198   H         1 RES1   0.0000
  2370 C1       7.2241  38.3439  31.1198   C         1 RES1   0.0000
  2371 Zr      10.3733  39.0086  31.1198   Z         1 RES1   0.0000
  2372 O1      10.3733  37.9613  29.1696   O         1 RES1   0.0000
  2373 C2      10.3733  37.2858  26.9126   C         1 RES1   0.0000
  2374 C3      10.3733  37.6478  25.5779   C         1 RES1   0.0000
  2375 H1      10.3733  38.5657  25.3336   H         1 RES1   0.0000
  2376 C1      10.3733  38.3439  27.9706   C         1 RES1   0.0000
  2377 O1      10.3733  37.9613  33.0699   O         1 RES1   0.0000
  2378 C2      10.3733  37.2858  35.3269   C         1 RES1   0.0000
  2379 C3      10.3733  37.6478  36.6616   C         1 RES1   0.0000
  2380 H1      10.3733  38.5657  36.9059   H         1 RES1   0.0000
  2381 C1      10.3733  38.3439  34.2689   C         1 RES1   0.0000
  2382 Zr      10.3733  41.4930  28.6354   Z         1 RES1   0.0000
  2383 O3       9.3256  40.4453  30.0721   O         1 RES1   0.0000
  2384 O1      10.3733  39.5428  27.5881   O         1 RES1   0.0000
  2385 C3      10.3733  35.9512  27.2746   C         1 RES1   0.0000
  2386 H1      10.3733  35.7068  28.1924   H         1 RES1   0.0000
  2387 O1      10.3733  39.5428  34.6514   O         1 RES1   0.0000
  2388 C3      10.3733  35.9512  34.9649   C         1 RES1   0.0000
  2389 H1      10.3733  35.7068  34.0471   H         1 RES1   0.0000
  2390 O3      11.4209  40.4453  32.1674   O         1 RES1   0.0000
  2391 O1       8.4231  37.9613  31.1198   O         1 RES1   0.0000
  2392 H1       4.5871  38.5657  31.1198   H         1 RES1   0.0000
  2393 O1      12.3234  37.9613  31.1198   O         1 RES1   0.0000
  2394 H1      16.1594  38.5657  31.1198   H         1 RES1   0.0000
  2395 O1      13.9049  41.4930  29.1696   O         1 RES1   0.0000
  2396 C2      14.5804  41.4930  26.9126   C         1 RES1   0.0000
  2397 H1      13.3006  41.4930  25.3336   H         1 RES1   0.0000
  2398 C1      13.5224  41.4930  27.9706   C         1 RES1   0.0000
  2399 O1      13.9049  41.4930  33.0699   O         1 RES1   0.0000
  2400 H1      13.3006  41.4930  36.9059   H         1 RES1   0.0000
  2401 O1       6.8416  41.4930  33.0699   O         1 RES1   0.0000
  2402 H1       7.4459  41.4930  36.9059   H         1 RES1   0.0000
  2403 O1       6.8416  41.4930  29.1696   O         1 RES1   0.0000
  2404 C2       6.1661  41.4930  26.9126   C         1 RES1   0.0000
  2405 H1       7.4459  41.4930  25.3336   H         1 RES1   0.0000
  2406 C1       7.2241  41.4930  27.9706   C         1 RES1   0.0000
  2407 O1       8.4231  41.4930  27.5881   O         1 RES1   0.0000
  2408 H1       4.5871  41.4930  28.1924   H         1 RES1   0.0000
  2409 O1      12.3234  41.4930  27.5881   O         1 RES1   0.0000
  2410 H1      16.1594  41.4930  28.1924   H         1 RES1   0.0000
  2411 C3      10.3733  34.9649  26.2883   C         1 RES1   0.0000
  2412 C3      10.3733  34.9649  35.9512   C         1 RES1   0.0000
  2413 C3      10.3733  36.6616  37.6478   C         1 RES1   0.0000
  2414 C3      10.3733  36.6616  24.5917   C         1 RES1   0.0000
  2415 O3      32.1674   1.0477  11.4209   O         1 RES1   0.0000
  2416 O1      34.6514   1.9502  10.3733   O         1 RES1   0.0000
  2417 C2      35.3269   4.2072  10.3733   C         1 RES1   0.0000
  2418 H1      34.0471   5.7862  10.3733   H         1 RES1   0.0000
  2419 C1      34.2689   3.1491  10.3733   C         1 RES1   0.0000
  2420 O3      30.0721   1.0477   9.3256   O         1 RES1   0.0000
  2421 O1      27.5881   1.9502  10.3733   O         1 RES1   0.0000
  2422 C2      26.9126   4.2072  10.3733   C         1 RES1   0.0000
  2423 H1      28.1924   5.7862  10.3733   H         1 RES1   0.0000
  2424 C1      27.9706   3.1491  10.3733   C         1 RES1   0.0000
  2425 Zr      31.1198   2.4844  10.3733   Z         1 RES1   0.0000
  2426 O1      31.1198   3.5317  12.3234   O         1 RES1   0.0000
  2427 C2      31.1198   4.2072  14.5804   C         1 RES1   0.0000
  2428 C3      31.1198   3.8452  15.9151   C         1 RES1   0.0000
  2429 H1      31.1198   2.9273  16.1594   H         1 RES1   0.0000
  2430 C1      31.1198   3.1491  13.5224   C         1 RES1   0.0000
  2431 O1      31.1198   3.5317   8.4231   O         1 RES1   0.0000
  2432 C2      31.1198   4.2072   6.1661   C         1 RES1   0.0000
  2433 C3      31.1198   3.8452   4.8314   C         1 RES1   0.0000
  2434 H1      31.1198   2.9273   4.5871   H         1 RES1   0.0000
  2435 C1      31.1198   3.1491   7.2241   C         1 RES1   0.0000
  2436 O1      31.1198   1.9502   6.8416   O         1 RES1   0.0000
  2437 C3      31.1198   5.5418   6.5281   C         1 RES1   0.0000
  2438 H1      31.1198   5.7862   7.4459   H         1 RES1   0.0000
  2439 O3      32.1674   1.0477   9.3256   O         1 RES1   0.0000
  2440 O3      30.0721   1.0477  11.4209   O         1 RES1   0.0000
  2441 O1      31.1198   1.9502  13.9049   O         1 RES1   0.0000
  2442 C3      31.1198   5.5418  14.2184   C         1 RES1   0.0000
  2443 H1      31.1198   5.7862  13.3006   H         1 RES1   0.0000
  2444 O1      33.0699   3.5317  10.3733   O         1 RES1   0.0000
  2445 H1      36.9059   2.9273  10.3733   H         1 RES1   0.0000
  2446 O1      29.1696   3.5317  10.3733   O         1 RES1   0.0000
  2447 H1      25.3336   2.9273  10.3733   H         1 RES1   0.0000
  2448 C3      31.1198   6.5281  15.2047   C         1 RES1   0.0000
  2449 C3      31.1198   6.5281   5.5418   C         1 RES1   0.0000
  2450 C3      31.1198   4.8314  16.9013   C         1 RES1   0.0000
  2451 C3      31.1198   4.8314   3.8452   C         1 RES1   0.0000
  2452 O3      32.1674   1.0477  32.1674   O         1 RES1   0.0000
  2453 O1      34.6514   1.9502  31.1198   O         1 RES1   0.0000
  2454 C2      35.3269   4.2072  31.1198   C         1 RES1   0.0000
  2455 H1      34.0471   5.7862  31.1198   H         1 RES1   0.0000
  2456 C1      34.2689   3.1491  31.1198   C         1 RES1   0.0000
  2457 O3      30.0721   1.0477  30.0721   O         1 RES1   0.0000
  2458 O1      27.5881   1.9502  31.1198   O         1 RES1   0.0000
  2459 C2      26.9126   4.2072  31.1198   C         1 RES1   0.0000
  2460 H1      28.1924   5.7862  31.1198   H         1 RES1   0.0000
  2461 C1      27.9706   3.1491  31.1198   C         1 RES1   0.0000
  2462 Zr      31.1198   2.4844  31.1198   Z         1 RES1   0.0000
  2463 O1      31.1198   3.5317  33.0699   O         1 RES1   0.0000
  2464 C2      31.1198   4.2072  35.3269   C         1 RES1   0.0000
  2465 C3      31.1198   3.8452  36.6616   C         1 RES1   0.0000
  2466 H1      31.1198   2.9273  36.9059   H         1 RES1   0.0000
  2467 C1      31.1198   3.1491  34.2689   C         1 RES1   0.0000
  2468 O1      31.1198   3.5317  29.1696   O         1 RES1   0.0000
  2469 C2      31.1198   4.2072  26.9126   C         1 RES1   0.0000
  2470 C3      31.1198   3.8452  25.5779   C         1 RES1   0.0000
  2471 H1      31.1198   2.9273  25.3336   H         1 RES1   0.0000
  2472 C1      31.1198   3.1491  27.9706   C         1 RES1   0.0000
  2473 O1      31.1198   1.9502  27.5881   O         1 RES1   0.0000
  2474 C3      31.1198   5.5418  27.2746   C         1 RES1   0.0000
  2475 H1      31.1198   5.7862  28.1924   H         1 RES1   0.0000
  2476 O3      32.1674   1.0477  30.0721   O         1 RES1   0.0000
  2477 O3      30.0721   1.0477  32.1674   O         1 RES1   0.0000
  2478 O1      31.1198   1.9502  34.6514   O         1 RES1   0.0000
  2479 C3      31.1198   5.5418  34.9649   C         1 RES1   0.0000
  2480 H1      31.1198   5.7862  34.0471   H         1 RES1   0.0000
  2481 O1      33.0699   3.5317  31.1198   O         1 RES1   0.0000
  2482 H1      36.9059   2.9273  31.1198   H         1 RES1   0.0000
  2483 O1      29.1696   3.5317  31.1198   O         1 RES1   0.0000
  2484 H1      25.3336   2.9273  31.1198   H         1 RES1   0.0000
  2485 C3      31.1198   6.5281  35.9512   C         1 RES1   0.0000
  2486 C3      31.1198   6.5281  26.2883   C         1 RES1   0.0000
  2487 C3      31.1198   4.8314  37.6478   C         1 RES1   0.0000
  2488 C3      31.1198   4.8314  24.5917   C         1 RES1   0.0000
  2489 Zr      31.1198  20.7465  12.8576   Z         1 RES1   0.0000
  2490 O1      33.0699  20.7465  13.9049   O         1 RES1   0.0000
  2491 C2      35.3269  20.7465  14.5804   C         1 RES1   0.0000
  2492 H1      36.9059  20.7465  13.3006   H         1 RES1   0.0000
  2493 O3      30.0721  19.6988  11.4209   O         1 RES1   0.0000
  2494 C1      34.2689  20.7465  13.5224   C         1 RES1   0.0000
  2495 O1      29.1696  20.7465  13.9049   O         1 RES1   0.0000
  2496 C2      26.9126  20.7465  14.5804   C         1 RES1   0.0000
  2497 H1      25.3336  20.7465  13.3006   H         1 RES1   0.0000
  2498 O3      32.1674  21.7942  11.4209   O         1 RES1   0.0000
  2499 C1      27.9706  20.7465  13.5224   C         1 RES1   0.0000
  2500 Zr      33.6041  20.7465  10.3733   Z         1 RES1   0.0000
  2501 O1      34.6514  22.6967  10.3733   O         1 RES1   0.0000
  2502 C2      35.3269  24.9537  10.3733   C         1 RES1   0.0000
  2503 H1      34.0471  26.5327  10.3733   H         1 RES1   0.0000
  2504 O3      32.1674  19.6988   9.3256   O         1 RES1   0.0000
  2505 C1      34.2689  23.8956  10.3733   C         1 RES1   0.0000
  2506 O1      34.6514  18.7963  10.3733   O         1 RES1   0.0000
  2507 C2      35.3269  16.5393  10.3733   C         1 RES1   0.0000
  2508 H1      34.0471  14.9603  10.3733   H         1 RES1   0.0000
  2509 C1      34.2689  17.5974  10.3733   C         1 RES1   0.0000
  2510 Zr      28.6354  20.7465  10.3733   Z         1 RES1   0.0000
  2511 O1      27.5881  18.7963  10.3733   O         1 RES1   0.0000
  2512 C2      26.9126  16.5393  10.3733   C         1 RES1   0.0000
  2513 H1      28.1924  14.9603  10.3733   H         1 RES1   0.0000
  2514 O3      30.0721  21.7942   9.3256   O         1 RES1   0.0000
  2515 C1      27.9706  17.5974  10.3733   C         1 RES1   0.0000
  2516 O1      27.5881  22.6967  10.3733   O         1 RES1   0.0000
  2517 C2      26.9126  24.9537  10.3733   C         1 RES1   0.0000
  2518 H1      28.1924  26.5327  10.3733   H         1 RES1   0.0000
  2519 C1      27.9706  23.8956  10.3733   C         1 RES1   0.0000
  2520 Zr      31.1198  23.2309  10.3733   Z         1 RES1   0.0000
  2521 O1      31.1198  24.2782  12.3234   O         1 RES1   0.0000
  2522 C2      31.1198  24.9537  14.5804   C         1 RES1   0.0000
  2523 C3      31.1198  24.5917  15.9151   C         1 RES1   0.0000
  2524 H1      31.1198  23.6738  16.1594   H         1 RES1   0.0000
  2525 C1      31.1198  23.8956  13.5224   C         1 RES1   0.0000
  2526 O1      31.1198  24.2782   8.4231   O         1 RES1   0.0000
  2527 C2      31.1198  24.9537   6.1661   C         1 RES1   0.0000
  2528 C3      31.1198  24.5917   4.8314   C         1 RES1   0.0000
  2529 H1      31.1198  23.6738   4.5871   H         1 RES1   0.0000
  2530 C1      31.1198  23.8956   7.2241   C         1 RES1   0.0000
  2531 Zr      31.1198  18.2621  10.3733   Z         1 RES1   0.0000
  2532 O1      31.1198  17.2148   8.4231   O         1 RES1   0.0000
  2533 C2      31.1198  16.5393   6.1661   C         1 RES1   0.0000
  2534 C3      31.1198  16.9013   4.8314   C         1 RES1   0.0000
  2535 H1      31.1198  17.8192   4.5871   H         1 RES1   0.0000
  2536 C1      31.1198  17.5974   7.2241   C         1 RES1   0.0000
  2537 O1      31.1198  17.2148  12.3234   O         1 RES1   0.0000
  2538 C2      31.1198  16.5393  14.5804   C         1 RES1   0.0000
  2539 C3      31.1198  16.9013  15.9151   C         1 RES1   0.0000
  2540 H1      31.1198  17.8192  16.1594   H         1 RES1   0.0000
  2541 C1      31.1198  17.5974  13.5224   C         1 RES1   0.0000
  2542 Zr      31.1198  20.7465   7.8889   Z         1 RES1   0.0000
  2543 O1      31.1198  22.6967   6.8416   O         1 RES1   0.0000
  2544 C3      31.1198  26.2883   6.5281   C         1 RES1   0.0000
  2545 H1      31.1198  26.5327   7.4459   H         1 RES1   0.0000
  2546 O3      30.0721  19.6988   9.3256   O         1 RES1   0.0000
  2547 O1      31.1198  18.7963   6.8416   O         1 RES1   0.0000
  2548 C3      31.1198  15.2047   6.5281   C         1 RES1   0.0000
  2549 H1      31.1198  14.9603   7.4459   H         1 RES1   0.0000
  2550 O3      32.1674  21.7942   9.3256   O         1 RES1   0.0000
  2551 O1      31.1198  18.7963  13.9049   O         1 RES1   0.0000
  2552 C3      31.1198  15.2047  14.2184   C         1 RES1   0.0000
  2553 H1      31.1198  14.9603  13.3006   H         1 RES1   0.0000
  2554 O3      30.0721  21.7942  11.4209   O         1 RES1   0.0000
  2555 O1      31.1198  22.6967  13.9049   O         1 RES1   0.0000
  2556 C3      31.1198  26.2883  14.2184   C         1 RES1   0.0000
  2557 H1      31.1198  26.5327  13.3006   H         1 RES1   0.0000
  2558 O3      32.1674  19.6988  11.4209   O         1 RES1   0.0000
  2559 O1      33.0699  24.2782  10.3733   O         1 RES1   0.0000
  2560 H1      36.9059  23.6738  10.3733   H         1 RES1   0.0000
  2561 O1      29.1696  24.2782  10.3733   O         1 RES1   0.0000
  2562 H1      25.3336  23.6738  10.3733   H         1 RES1   0.0000
  2563 O1      29.1696  17.2148  10.3733   O         1 RES1   0.0000
  2564 H1      25.3336  17.8192  10.3733   H         1 RES1   0.0000
  2565 O1      33.0699  17.2148  10.3733   O         1 RES1   0.0000
  2566 H1      36.9059  17.8192  10.3733   H         1 RES1   0.0000
  2567 O1      34.6514  20.7465   8.4231   O         1 RES1   0.0000
  2568 C2      35.3269  20.7465   6.1661   C         1 RES1   0.0000
  2569 H1      34.0471  20.7465   4.5871   H         1 RES1   0.0000
  2570 C1      34.2689  20.7465   7.2241   C         1 RES1   0.0000
  2571 O1      34.6514  20.7465  12.3234   O         1 RES1   0.0000
  2572 H1      34.0471  20.7465  16.1594   H         1 RES1   0.0000
  2573 O1      27.5881  20.7465  12.3234   O         1 RES1   0.0000
  2574 H1      28.1924  20.7465  16.1594   H         1 RES1   0.0000
  2575 O1      27.5881  20.7465   8.4231   O         1 RES1   0.0000
  2576 C2      26.9126  20.7465   6.1661   C         1 RES1   0.0000
  2577 H1      28.1924  20.7465   4.5871   H         1 RES1   0.0000
  2578 C1      27.9706  20.7465   7.2241   C         1 RES1   0.0000
  2579 O1      29.1696  20.7465   6.8416   O         1 RES1   0.0000
  2580 H1      25.3336  20.7465   7.4459   H         1 RES1   0.0000
  2581 O1      33.0699  20.7465   6.8416   O         1 RES1   0.0000
  2582 H1      36.9059  20.7465   7.4459   H         1 RES1   0.0000
  2583 C3      31.1198  14.2184   5.5418   C         1 RES1   0.0000
  2584 C3      31.1198  14.2184  15.2047   C         1 RES1   0.0000
  2585 C3      31.1198  27.2746  15.2047   C         1 RES1   0.0000
  2586 C3      31.1198  27.2746   5.5418   C         1 RES1   0.0000
  2587 C3      31.1198  15.9151  16.9013   C         1 RES1   0.0000
  2588 C3      31.1198  25.5779  16.9013   C         1 RES1   0.0000
  2589 C3      31.1198  25.5779   3.8452   C         1 RES1   0.0000
  2590 C3      31.1198  15.9151   3.8452   C         1 RES1   0.0000
  2591 Zr      31.1198  20.7465  33.6041   Z         1 RES1   0.0000
  2592 O1      33.0699  20.7465  34.6514   O         1 RES1   0.0000
  2593 C2      35.3269  20.7465  35.3269   C         1 RES1   0.0000
  2594 H1      36.9059  20.7465  34.0471   H         1 RES1   0.0000
  2595 O3      30.0721  19.6988  32.1674   O         1 RES1   0.0000
  2596 C1      34.2689  20.7465  34.2689   C         1 RES1   0.0000
  2597 O1      29.1696  20.7465  34.6514   O         1 RES1   0.0000
  2598 C2      26.9126  20.7465  35.3269   C         1 RES1   0.0000
  2599 H1      25.3336  20.7465  34.0471   H         1 RES1   0.0000
  2600 O3      32.1674  21.7942  32.1674   O         1 RES1   0.0000
  2601 C1      27.9706  20.7465  34.2689   C         1 RES1   0.0000
  2602 Zr      33.6041  20.7465  31.1198   Z         1 RES1   0.0000
  2603 O1      34.6514  22.6967  31.1198   O         1 RES1   0.0000
  2604 C2      35.3269  24.9537  31.1198   C         1 RES1   0.0000
  2605 H1      34.0471  26.5327  31.1198   H         1 RES1   0.0000
  2606 O3      32.1674  19.6988  30.0721   O         1 RES1   0.0000
  2607 C1      34.2689  23.8956  31.1198   C         1 RES1   0.0000
  2608 O1      34.6514  18.7963  31.1198   O         1 RES1   0.0000
  2609 C2      35.3269  16.5393  31.1198   C         1 RES1   0.0000
  2610 H1      34.0471  14.9603  31.1198   H         1 RES1   0.0000
  2611 C1      34.2689  17.5974  31.1198   C         1 RES1   0.0000
  2612 Zr      28.6354  20.7465  31.1198   Z         1 RES1   0.0000
  2613 O1      27.5881  18.7963  31.1198   O         1 RES1   0.0000
  2614 C2      26.9126  16.5393  31.1198   C         1 RES1   0.0000
  2615 H1      28.1924  14.9603  31.1198   H         1 RES1   0.0000
  2616 O3      30.0721  21.7942  30.0721   O         1 RES1   0.0000
  2617 C1      27.9706  17.5974  31.1198   C         1 RES1   0.0000
  2618 O1      27.5881  22.6967  31.1198   O         1 RES1   0.0000
  2619 C2      26.9126  24.9537  31.1198   C         1 RES1   0.0000
  2620 H1      28.1924  26.5327  31.1198   H         1 RES1   0.0000
  2621 C1      27.9706  23.8956  31.1198   C         1 RES1   0.0000
  2622 Zr      31.1198  23.2309  31.1198   Z         1 RES1   0.0000
  2623 O1      31.1198  24.2782  33.0699   O         1 RES1   0.0000
  2624 C2      31.1198  24.9537  35.3269   C         1 RES1   0.0000
  2625 C3      31.1198  24.5917  36.6616   C         1 RES1   0.0000
  2626 H1      31.1198  23.6738  36.9059   H         1 RES1   0.0000
  2627 C1      31.1198  23.8956  34.2689   C         1 RES1   0.0000
  2628 O1      31.1198  24.2782  29.1696   O         1 RES1   0.0000
  2629 C2      31.1198  24.9537  26.9126   C         1 RES1   0.0000
  2630 C3      31.1198  24.5917  25.5779   C         1 RES1   0.0000
  2631 H1      31.1198  23.6738  25.3336   H         1 RES1   0.0000
  2632 C1      31.1198  23.8956  27.9706   C         1 RES1   0.0000
  2633 Zr      31.1198  18.2621  31.1198   Z         1 RES1   0.0000
  2634 O1      31.1198  17.2148  29.1696   O         1 RES1   0.0000
  2635 C2      31.1198  16.5393  26.9126   C         1 RES1   0.0000
  2636 C3      31.1198  16.9013  25.5779   C         1 RES1   0.0000
  2637 H1      31.1198  17.8192  25.3336   H         1 RES1   0.0000
  2638 C1      31.1198  17.5974  27.9706   C         1 RES1   0.0000
  2639 O1      31.1198  17.2148  33.0699   O         1 RES1   0.0000
  2640 C2      31.1198  16.5393  35.3269   C         1 RES1   0.0000
  2641 C3      31.1198  16.9013  36.6616   C         1 RES1   0.0000
  2642 H1      31.1198  17.8192  36.9059   H         1 RES1   0.0000
  2643 C1      31.1198  17.5974  34.2689   C         1 RES1   0.0000
  2644 Zr      31.1198  20.7465  28.6354   Z         1 RES1   0.0000
  2645 O1      31.1198  22.6967  27.5881   O         1 RES1   0.0000
  2646 C3      31.1198  26.2883  27.2746   C         1 RES1   0.0000
  2647 H1      31.1198  26.5327  28.1924   H         1 RES1   0.0000
  2648 O3      30.0721  19.6988  30.0721   O         1 RES1   0.0000
  2649 O1      31.1198  18.7963  27.5881   O         1 RES1   0.0000
  2650 C3      31.1198  15.2047  27.2746   C         1 RES1   0.0000
  2651 H1      31.1198  14.9603  28.1924   H         1 RES1   0.0000
  2652 O3      32.1674  21.7942  30.0721   O         1 RES1   0.0000
  2653 O1      31.1198  18.7963  34.6514   O         1 RES1   0.0000
  2654 C3      31.1198  15.2047  34.9649   C         1 RES1   0.0000
  2655 H1      31.1198  14.9603  34.0471   H         1 RES1   0.0000
  2656 O3      30.0721  21.7942  32.1674   O         1 RES1   0.0000
  2657 O1      31.1198  22.6967  34.6514   O         1 RES1   0.0000
  2658 C3      31.1198  26.2883  34.9649   C         1 RES1   0.0000
  2659 H1      31.1198  26.5327  34.0471   H         1 RES1   0.0000
  2660 O3      32.1674  19.6988  32.1674   O         1 RES1   0.0000
  2661 O1      33.0699  24.2782  31.1198   O         1 RES1   0.0000
  2662 H1      36.9059  23.6738  31.1198   H         1 RES1   0.0000
  2663 O1      29.1696  24.2782  31.1198   O         1 RES1   0.0000
  2664 H1      25.3336  23.6738  31.1198   H         1 RES1   0.0000
  2665 O1      29.1696  17.2148  31.1198   O         1 RES1   0.0000
  2666 H1      25.3336  17.8192  31.1198   H         1 RES1   0.0000
  2667 O1      33.0699  17.2148  31.1198   O         1 RES1   0.0000
  2668 H1      36.9059  17.8192  31.1198   H         1 RES1   0.0000
  2669 O1      34.6514  20.7465  29.1696   O         1 RES1   0.0000
  2670 C2      35.3269  20.7465  26.9126   C         1 RES1   0.0000
  2671 H1      34.0471  20.7465  25.3336   H         1 RES1   0.0000
  2672 C1      34.2689  20.7465  27.9706   C         1 RES1   0.0000
  2673 O1      34.6514  20.7465  33.0699   O         1 RES1   0.0000
  2674 H1      34.0471  20.7465  36.9059   H         1 RES1   0.0000
  2675 O1      27.5881  20.7465  33.0699   O         1 RES1   0.0000
  2676 H1      28.1924  20.7465  36.9059   H         1 RES1   0.0000
  2677 O1      27.5881  20.7465  29.1696   O         1 RES1   0.0000
  2678 C2      26.9126  20.7465  26.9126   C         1 RES1   0.0000
  2679 H1      28.1924  20.7465  25.3336   H         1 RES1   0.0000
  2680 C1      27.9706  20.7465  27.9706   C         1 RES1   0.0000
  2681 O1      29.1696  20.7465  27.5881   O         1 RES1   0.0000
  2682 H1      25.3336  20.7465  28.1924   H         1 RES1   0.0000
  2683 O1      33.0699  20.7465  27.5881   O         1 RES1   0.0000
  2684 H1      36.9059  20.7465  28.1924   H         1 RES1   0.0000
  2685 C3      31.1198  14.2184  26.2883   C         1 RES1   0.0000
  2686 C3      31.1198  14.2184  35.9512   C         1 RES1   0.0000
  2687 C3      31.1198  27.2746  35.9512   C         1 RES1   0.0000
  2688 C3      31.1198  27.2746  26.2883   C         1 RES1   0.0000
  2689 C3      31.1198  15.9151  37.6478   C         1 RES1   0.0000
  2690 C3      31.1198  25.5779  37.6478   C         1 RES1   0.0000
  2691 C3      31.1198  25.5779  24.5917   C         1 RES1   0.0000
  2692 C3      31.1198  15.9151  24.5917   C         1 RES1   0.0000
  2693 Zr      31.1198  41.4930  12.8576   Z         1 RES1   0.0000
  2694 O1      33.0699  41.4930  13.9049   O         1 RES1   0.0000
  2695 C2      35.3269  41.4930  14.5804   C         1 RES1   0.0000
  2696 H1      36.9059  41.4930  13.3006   H         1 RES1   0.0000
  2697 O3      30.0721  40.4453  11.4209   O         1 RES1   0.0000
  2698 C1      34.2689  41.4930  13.5224   C         1 RES1   0.0000
  2699 O1      29.1696  41.4930  13.9049   O         1 RES1   0.0000
  2700 C2      26.9126  41.4930  14.5804   C         1 RES1   0.0000
  2701 H1      25.3336  41.4930  13.3006   H         1 RES1   0.0000
  2702 C1      27.9706  41.4930  13.5224   C         1 RES1   0.0000
  2703 Zr      33.6041  41.4930  10.3733   Z         1 RES1   0.0000
  2704 O3      32.1674  40.4453   9.3256   O         1 RES1   0.0000
  2705 O1      34.6514  39.5428  10.3733   O         1 RES1   0.0000
  2706 C2      35.3269  37.2858  10.3733   C         1 RES1   0.0000
  2707 H1      34.0471  35.7068  10.3733   H         1 RES1   0.0000
  2708 C1      34.2689  38.3439  10.3733   C         1 RES1   0.0000
  2709 Zr      28.6354  41.4930  10.3733   Z         1 RES1   0.0000
  2710 O1      27.5881  39.5428  10.3733   O         1 RES1   0.0000
  2711 C2      26.9126  37.2858  10.3733   C         1 RES1   0.0000
  2712 H1      28.1924  35.7068  10.3733   H         1 RES1   0.0000
  2713 C1      27.9706  38.3439  10.3733   C         1 RES1   0.0000
  2714 Zr      31.1198  39.0086  10.3733   Z         1 RES1   0.0000
  2715 O1      31.1198  37.9613   8.4231   O         1 RES1   0.0000
  2716 C2      31.1198  37.2858   6.1661   C         1 RES1   0.0000
  2717 C3      31.1198  37.6478   4.8314   C         1 RES1   0.0000
  2718 H1      31.1198  38.5657   4.5871   H         1 RES1   0.0000
  2719 C1      31.1198  38.3439   7.2241   C         1 RES1   0.0000
  2720 O1      31.1198  37.9613  12.3234   O         1 RES1   0.0000
  2721 C2      31.1198  37.2858  14.5804   C         1 RES1   0.0000
  2722 C3      31.1198  37.6478  15.9151   C         1 RES1   0.0000
  2723 H1      31.1198  38.5657  16.1594   H         1 RES1   0.0000
  2724 C1      31.1198  38.3439  13.5224   C         1 RES1   0.0000
  2725 Zr      31.1198  41.4930   7.8889   Z         1 RES1   0.0000
  2726 O3      30.0721  40.4453   9.3256   O         1 RES1   0.0000
  2727 O1      31.1198  39.5428   6.8416   O         1 RES1   0.0000
  2728 C3      31.1198  35.9512   6.5281   C         1 RES1   0.0000
  2729 H1      31.1198  35.7068   7.4459   H         1 RES1   0.0000
  2730 O1      31.1198  39.5428  13.9049   O         1 RES1   0.0000
  2731 C3      31.1198  35.9512  14.2184   C         1 RES1   0.0000
  2732 H1      31.1198  35.7068  13.3006   H         1 RES1   0.0000
  2733 O3      32.1674  40.4453  11.4209   O         1 RES1   0.0000
  2734 O1      29.1696  37.9613  10.3733   O         1 RES1   0.0000
  2735 H1      25.3336  38.5657  10.3733   H         1 RES1   0.0000
  2736 O1      33.0699  37.9613  10.3733   O         1 RES1   0.0000
  2737 H1      36.9059  38.5657  10.3733   H         1 RES1   0.0000
  2738 O1      34.6514  41.4930   8.4231   O         1 RES1   0.0000
  2739 C2      35.3269  41.4930   6.1661   C         1 RES1   0.0000
  2740 H1      34.0471  41.4930   4.5871   H         1 RES1   0.0000
  2741 C1      34.2689  41.4930   7.2241   C         1 RES1   0.0000
  2742 O1      34.6514  41.4930  12.3234   O         1 RES1   0.0000
  2743 H1      34.0471  41.4930  16.1594   H         1 RES1   0.0000
  2744 O1      27.5881  41.4930  12.3234   O         1 RES1   0.0000
  2745 H1      28.1924  41.4930  16.1594   H         1 RES1   0.0000
  2746 O1      27.5881  41.4930   8.4231   O         1 RES1   0.0000
  2747 C2      26.9126  41.4930   6.1661   C         1 RES1   0.0000
  2748 H1      28.1924  41.4930   4.5871   H         1 RES1   0.0000
  2749 C1      27.9706  41.4930   7.2241   C         1 RES1   0.0000
  2750 O1      29.1696  41.4930   6.8416   O         1 RES1   0.0000
  2751 H1      25.3336  41.4930   7.4459   H         1 RES1   0.0000
  2752 O1      33.0699  41.4930   6.8416   O         1 RES1   0.0000
  2753 H1      36.9059  41.4930   7.4459   H         1 RES1   0.0000
  2754 C3      31.1198  34.9649   5.5418   C         1 RES1   0.0000
  2755 C3      31.1198  34.9649  15.2047   C         1 RES1   0.0000
  2756 C3      31.1198  36.6616  16.9013   C         1 RES1   0.0000
  2757 C3      31.1198  36.6616   3.8452   C         1 RES1   0.0000
  2758 Zr      31.1198  41.4930  33.6041   Z         1 RES1   0.0000
  2759 O1      33.0699  41.4930  34.6514   O         1 RES1   0.0000
  2760 C2      35.3269  41.4930  35.3269   C         1 RES1   0.0000
  2761 H1      36.9059  41.4930  34.0471   H         1 RES1   0.0000
  2762 O3      30.0721  40.4453  32.1674   O         1 RES1   0.0000
  2763 C1      34.2689  41.4930  34.2689   C         1 RES1   0.0000
  2764 O1      29.1696  41.4930  34.6514   O         1 RES1   0.0000
  2765 C2      26.9126  41.4930  35.3269   C         1 RES1   0.0000
  2766 H1      25.3336  41.4930  34.0471   H         1 RES1   0.0000
  2767 C1      27.9706  41.4930  34.2689   C         1 RES1   0.0000
  2768 Zr      33.6041  41.4930  31.1198   Z         1 RES1   0.0000
  2769 O3      32.1674  40.4453  30.0721   O         1 RES1   0.0000
  2770 O1      34.6514  39.5428  31.1198   O         1 RES1   0.0000
  2771 C2      35.3269  37.2858  31.1198   C         1 RES1   0.0000
  2772 H1      34.0471  35.7068  31.1198   H         1 RES1   0.0000
  2773 C1      34.2689  38.3439  31.1198   C         1 RES1   0.0000
  2774 Zr      28.6354  41.4930  31.1198   Z         1 RES1   0.0000
  2775 O1      27.5881  39.5428  31.1198   O         1 RES1   0.0000
  2776 C2      26.9126  37.2858  31.1198   C         1 RES1   0.0000
  2777 H1      28.1924  35.7068  31.1198   H         1 RES1   0.0000
  2778 C1      27.9706  38.3439  31.1198   C         1 RES1   0.0000
  2779 Zr      31.1198  39.0086  31.1198   Z         1 RES1   0.0000
  2780 O1      31.1198  37.9613  29.1696   O         1 RES1   0.0000
  2781 C2      31.1198  37.2858  26.9126   C         1 RES1   0.0000
  2782 C3      31.1198  37.6478  25.5779   C         1 RES1   0.0000
  2783 H1      31.1198  38.5657  25.3336   H         1 RES1   0.0000
  2784 C1      31.1198  38.3439  27.9706   C         1 RES1   0.0000
  2785 O1      31.1198  37.9613  33.0699   O         1 RES1   0.0000
  2786 C2      31.1198  37.2858  35.3269   C         1 RES1   0.0000
  2787 C3      31.1198  37.6478  36.6616   C         1 RES1   0.0000
  2788 H1      31.1198  38.5657  36.9059   H         1 RES1   0.0000
  2789 C1      31.1198  38.3439  34.2689   C         1 RES1   0.0000
  2790 Zr      31.1198  41.4930  28.6354   Z         1 RES1   0.0000
  2791 O3      30.0721  40.4453  30.0721   O         1 RES1   0.0000
  2792 O1      31.1198  39.5428  27.5881   O         1 RES1   0.0000
  2793 C3      31.1198  35.9512  27.2746   C         1 RES1   0.0000
  2794 H1      31.1198  35.7068  28.1924   H         1 RES1   0.0000
  2795 O1      31.1198  39.5428  34.6514   O         1 RES1   0.0000
  2796 C3      31.1198  35.9512  34.9649   C         1 RES1   0.0000
  2797 H1      31.1198  35.7068  34.0471   H         1 RES1   0.0000
  2798 O3      32.1674  40.4453  32.1674   O         1 RES1   0.0000
  2799 O1      29.1696  37.9613  31.1198   O         1 RES1   0.0000
  2800 H1      25.3336  38.5657  31.1198   H         1 RES1   0.0000
  2801 O1      33.0699  37.9613  31.1198   O         1 RES1   0.0000
  2802 H1      36.9059  38.5657  31.1198   H         1 RES1   0.0000
  2803 O1      34.6514  41.4930  29.1696   O         1 RES1   0.0000
  2804 C2      35.3269  41.4930  26.9126   C         1 RES1   0.0000
  2805 H1      34.0471  41.4930  25.3336   H         1 RES1   0.0000
  2806 C1      34.2689  41.4930  27.9706   C         1 RES1   0.0000
  2807 O1      34.6514  41.4930  33.0699   O         1 RES1   0.0000
  2808 H1      34.0471  41.4930  36.9059   H         1 RES1   0.0000
  2809 O1      27.5881  41.4930  33.0699   O         1 RES1   0.0000
  2810 H1      28.1924  41.4930  36.9059   H         1 RES1   0.0000
  2811 O1      27.5881  41.4930  29.1696   O         1 RES1   0.0000
  2812 C2      26.9126  41.4930  26.9126   C         1 RES1   0.0000
  2813 H1      28.1924  41.4930  25.3336   H         1 RES1   0.0000
  2814 C1      27.9706  41.4930  27.9706   C         1 RES1   0.0000
  2815 O1      29.1696  41.4930  27.5881   O         1 RES1   0.0000
  2816 H1      25.3336  41.4930  28.1924   H         1 RES1   0.0000
  2817 O1      33.0699  41.4930  27.5881   O         1 RES1   0.0000
  2818 H1      36.9059  41.4930  28.1924   H         1 RES1   0.0000
  2819 C3      31.1198  34.9649  26.2883   C         1 RES1   0.0000
  2820 C3      31.1198  34.9649  35.9512   C         1 RES1   0.0000
  2821 C3      31.1198  36.6616  37.6478   C         1 RES1   0.0000
  2822 C3      31.1198  36.6616  24.5917   C         1 RES1   0.0000
  2823 Zr      10.3733  10.3733   2.4844   Z         1 RES1   0.0000
  2824 O1      12.3234  10.3733   3.5317   O         1 RES1   0.0000
  2825 C2      14.5804  10.3733   4.2072   C         1 RES1   0.0000
  2826 H1      16.1594  10.3733   2.9273   H         1 RES1   0.0000
  2827 O3       9.3256   9.3256   1.0477   O         1 RES1   0.0000
  2828 C1      13.5224  10.3733   3.1491   C         1 RES1   0.0000
  2829 O1       8.4231  10.3733   3.5317   O         1 RES1   0.0000
  2830 C2       6.1661  10.3733   4.2072   C         1 RES1   0.0000
  2831 H1       4.5871  10.3733   2.9273   H         1 RES1   0.0000
  2832 O3      11.4209  11.4209   1.0477   O         1 RES1   0.0000
  2833 C1       7.2241  10.3733   3.1491   C         1 RES1   0.0000
  2834 O1      10.3733  13.9049   1.9502   O         1 RES1   0.0000
  2835 C2      10.3733  14.5804   4.2072   C         1 RES1   0.0000
  2836 H1      10.3733  13.3006   5.7862   H         1 RES1   0.0000
  2837 C1      10.3733  13.5224   3.1491   C         1 RES1   0.0000
  2838 O1      10.3733   6.8416   1.9502   O         1 RES1   0.0000
  2839 C2      10.3733   6.1661   4.2072   C         1 RES1   0.0000
  2840 H1      10.3733   7.4459   5.7862   H         1 RES1   0.0000
  2841 C1      10.3733   7.2241   3.1491   C         1 RES1   0.0000
  2842 O1      10.3733   8.4231   3.5317   O         1 RES1   0.0000
  2843 H1      10.3733   4.5871   2.9273   H         1 RES1   0.0000
  2844 O3       9.3256  11.4209   1.0477   O         1 RES1   0.0000
  2845 O1      10.3733  12.3234   3.5317   O         1 RES1   0.0000
  2846 H1      10.3733  16.1594   2.9273   H         1 RES1   0.0000
  2847 O3      11.4209   9.3256   1.0477   O         1 RES1   0.0000
  2848 O1      13.9049  10.3733   1.9502   O         1 RES1   0.0000
  2849 H1      13.3006  10.3733   5.7862   H         1 RES1   0.0000
  2850 O1       6.8416  10.3733   1.9502   O         1 RES1   0.0000
  2851 H1       7.4459  10.3733   5.7862   H         1 RES1   0.0000
  2852 Zr      10.3733  10.3733  23.2309   Z         1 RES1   0.0000
  2853 O1      12.3234  10.3733  24.2782   O         1 RES1   0.0000
  2854 C2      14.5804  10.3733  24.9537   C         1 RES1   0.0000
  2855 H1      16.1594  10.3733  23.6738   H         1 RES1   0.0000
  2856 O3       9.3256   9.3256  21.7942   O         1 RES1   0.0000
  2857 C1      13.5224  10.3733  23.8956   C         1 RES1   0.0000
  2858 O1       8.4231  10.3733  24.2782   O         1 RES1   0.0000
  2859 C2       6.1661  10.3733  24.9537   C         1 RES1   0.0000
  2860 H1       4.5871  10.3733  23.6738   H         1 RES1   0.0000
  2861 O3      11.4209  11.4209  21.7942   O         1 RES1   0.0000
  2862 C1       7.2241  10.3733  23.8956   C         1 RES1   0.0000
  2863 Zr      12.8576  10.3733  20.7465   Z         1 RES1   0.0000
  2864 O1      13.9049  12.3234  20.7465   O         1 RES1   0.0000
  2865 C2      14.5804  14.5804  20.7465   C         1 RES1   0.0000
  2866 H1      13.3006  16.1594  20.7465   H         1 RES1   0.0000
  2867 O3      11.4209   9.3256  19.6988   O         1 RES1   0.0000
  2868 C1      13.5224  13.5224  20.7465   C         1 RES1   0.0000
  2869 O1      13.9049   8.4231  20.7465   O         1 RES1   0.0000
  2870 C2      14.5804   6.1661  20.7465   C         1 RES1   0.0000
  2871 H1      13.3006   4.5871  20.7465   H         1 RES1   0.0000
  2872 C1      13.5224   7.2241  20.7465   C         1 RES1   0.0000
  2873 Zr       7.8889  10.3733  20.7465   Z         1 RES1   0.0000
  2874 O1       6.8416   8.4231  20.7465   O         1 RES1   0.0000
  2875 C2       6.1661   6.1661  20.7465   C         1 RES1   0.0000
  2876 H1       7.4459   4.5871  20.7465   H         1 RES1   0.0000
  2877 O3       9.3256  11.4209  19.6988   O         1 RES1   0.0000
  2878 C1       7.2241   7.2241  20.7465   C         1 RES1   0.0000
  2879 O1       6.8416  12.3234  20.7465   O         1 RES1   0.0000
  2880 C2       6.1661  14.5804  20.7465   C         1 RES1   0.0000
  2881 H1       7.4459  16.1594  20.7465   H         1 RES1   0.0000
  2882 C1       7.2241  13.5224  20.7465   C         1 RES1   0.0000
  2883 Zr      10.3733  12.8576  20.7465   Z         1 RES1   0.0000
  2884 O1      10.3733  13.9049  22.6967   O         1 RES1   0.0000
  2885 C2      10.3733  14.5804  24.9537   C         1 RES1   0.0000
  2886 H1      10.3733  13.3006  26.5327   H         1 RES1   0.0000
  2887 C1      10.3733  13.5224  23.8956   C         1 RES1   0.0000
  2888 O1      10.3733  13.9049  18.7963   O         1 RES1   0.0000
  2889 C2      10.3733  14.5804  16.5393   C         1 RES1   0.0000
  2890 H1      10.3733  13.3006  14.9603   H         1 RES1   0.0000
  2891 C1      10.3733  13.5224  17.5974   C         1 RES1   0.0000
  2892 Zr      10.3733   7.8889  20.7465   Z         1 RES1   0.0000
  2893 O1      10.3733   6.8416  18.7963   O         1 RES1   0.0000
  2894 C2      10.3733   6.1661  16.5393   C         1 RES1   0.0000
  2895 H1      10.3733   7.4459  14.9603   H         1 RES1   0.0000
  2896 C1      10.3733   7.2241  17.5974   C         1 RES1   0.0000
  2897 O1      10.3733   6.8416  22.6967   O         1 RES1   0.0000
  2898 C2      10.3733   6.1661  24.9537   C         1 RES1   0.0000
  2899 H1      10.3733   7.4459  26.5327   H         1 RES1   0.0000
  2900 C1      10.3733   7.2241  23.8956   C         1 RES1   0.0000
  2901 Zr      10.3733  10.3733  18.2621   Z         1 RES1   0.0000
  2902 O1      10.3733  12.3234  17.2148   O         1 RES1   0.0000
  2903 H1      10.3733  16.1594  17.8192   H         1 RES1   0.0000
  2904 O3       9.3256   9.3256  19.6988   O         1 RES1   0.0000
  2905 O1      10.3733   8.4231  17.2148   O         1 RES1   0.0000
  2906 H1      10.3733   4.5871  17.8192   H         1 RES1   0.0000
  2907 O3      11.4209  11.4209  19.6988   O         1 RES1   0.0000
  2908 O1      10.3733   8.4231  24.2782   O         1 RES1   0.0000
  2909 H1      10.3733   4.5871  23.6738   H         1 RES1   0.0000
  2910 O3       9.3256  11.4209  21.7942   O         1 RES1   0.0000
  2911 O1      10.3733  12.3234  24.2782   O         1 RES1   0.0000
  2912 H1      10.3733  16.1594  23.6738   H         1 RES1   0.0000
  2913 O3      11.4209   9.3256  21.7942   O         1 RES1   0.0000
  2914 O1      12.3234  13.9049  20.7465   O         1 RES1   0.0000
  2915 H1      16.1594  13.3006  20.7465   H         1 RES1   0.0000
  2916 O1       8.4231  13.9049  20.7465   O         1 RES1   0.0000
  2917 H1       4.5871  13.3006  20.7465   H         1 RES1   0.0000
  2918 O1       8.4231   6.8416  20.7465   O         1 RES1   0.0000
  2919 H1       4.5871   7.4459  20.7465   H         1 RES1   0.0000
  2920 O1      12.3234   6.8416  20.7465   O         1 RES1   0.0000
  2921 H1      16.1594   7.4459  20.7465   H         1 RES1   0.0000
  2922 O1      13.9049  10.3733  18.7963   O         1 RES1   0.0000
  2923 C2      14.5804  10.3733  16.5393   C         1 RES1   0.0000
  2924 H1      13.3006  10.3733  14.9603   H         1 RES1   0.0000
  2925 C1      13.5224  10.3733  17.5974   C         1 RES1   0.0000
  2926 O1      13.9049  10.3733  22.6967   O         1 RES1   0.0000
  2927 H1      13.3006  10.3733  26.5327   H         1 RES1   0.0000
  2928 O1       6.8416  10.3733  22.6967   O         1 RES1   0.0000
  2929 H1       7.4459  10.3733  26.5327   H         1 RES1   0.0000
  2930 O1       6.8416  10.3733  18.7963   O         1 RES1   0.0000
  2931 C2       6.1661  10.3733  16.5393   C         1 RES1   0.0000
  2932 H1       7.4459  10.3733  14.9603   H         1 RES1   0.0000
  2933 C1       7.2241  10.3733  17.5974   C         1 RES1   0.0000
  2934 O1       8.4231  10.3733  17.2148   O         1 RES1   0.0000
  2935 H1       4.5871  10.3733  17.8192   H         1 RES1   0.0000
  2936 O1      12.3234  10.3733  17.2148   O         1 RES1   0.0000
  2937 H1      16.1594  10.3733  17.8192   H         1 RES1   0.0000
  2938 Zr      12.8576  10.3733  41.4930   Z         1 RES1   0.0000
  2939 O1      13.9049  12.3234  41.4930   O         1 RES1   0.0000
  2940 C2      14.5804  14.5804  41.4930   C         1 RES1   0.0000
  2941 H1      13.3006  16.1594  41.4930   H         1 RES1   0.0000
  2942 O3      11.4209   9.3256  40.4453   O         1 RES1   0.0000
  2943 C1      13.5224  13.5224  41.4930   C         1 RES1   0.0000
  2944 O1      13.9049   8.4231  41.4930   O         1 RES1   0.0000
  2945 C2      14.5804   6.1661  41.4930   C         1 RES1   0.0000
  2946 H1      13.3006   4.5871  41.4930   H         1 RES1   0.0000
  2947 C1      13.5224   7.2241  41.4930   C         1 RES1   0.0000
  2948 Zr       7.8889  10.3733  41.4930   Z         1 RES1   0.0000
  2949 O1       6.8416   8.4231  41.4930   O         1 RES1   0.0000
  2950 C2       6.1661   6.1661  41.4930   C         1 RES1   0.0000
  2951 H1       7.4459   4.5871  41.4930   H         1 RES1   0.0000
  2952 O3       9.3256  11.4209  40.4453   O         1 RES1   0.0000
  2953 C1       7.2241   7.2241  41.4930   C         1 RES1   0.0000
  2954 O1       6.8416  12.3234  41.4930   O         1 RES1   0.0000
  2955 C2       6.1661  14.5804  41.4930   C         1 RES1   0.0000
  2956 H1       7.4459  16.1594  41.4930   H         1 RES1   0.0000
  2957 C1       7.2241  13.5224  41.4930   C         1 RES1   0.0000
  2958 Zr      10.3733  12.8576  41.4930   Z         1 RES1   0.0000
  2959 O1      10.3733  13.9049  39.5428   O         1 RES1   0.0000
  2960 C2      10.3733  14.5804  37.2858   C         1 RES1   0.0000
  2961 H1      10.3733  13.3006  35.7068   H         1 RES1   0.0000
  2962 C1      10.3733  13.5224  38.3439   C         1 RES1   0.0000
  2963 Zr      10.3733   7.8889  41.4930   Z         1 RES1   0.0000
  2964 O1      10.3733   6.8416  39.5428   O         1 RES1   0.0000
  2965 C2      10.3733   6.1661  37.2858   C         1 RES1   0.0000
  2966 H1      10.3733   7.4459  35.7068   H         1 RES1   0.0000
  2967 C1      10.3733   7.2241  38.3439   C         1 RES1   0.0000
  2968 Zr      10.3733  10.3733  39.0086   Z         1 RES1   0.0000
  2969 O1      10.3733  12.3234  37.9613   O         1 RES1   0.0000
  2970 H1      10.3733  16.1594  38.5657   H         1 RES1   0.0000
  2971 O3       9.3256   9.3256  40.4453   O         1 RES1   0.0000
  2972 O1      10.3733   8.4231  37.9613   O         1 RES1   0.0000
  2973 H1      10.3733   4.5871  38.5657   H         1 RES1   0.0000
  2974 O3      11.4209  11.4209  40.4453   O         1 RES1   0.0000
  2975 O1      12.3234  13.9049  41.4930   O         1 RES1   0.0000
  2976 H1      16.1594  13.3006  41.4930   H         1 RES1   0.0000
  2977 O1       8.4231  13.9049  41.4930   O         1 RES1   0.0000
  2978 H1       4.5871  13.3006  41.4930   H         1 RES1   0.0000
  2979 O1       8.4231   6.8416  41.4930   O         1 RES1   0.0000
  2980 H1       4.5871   7.4459  41.4930   H         1 RES1   0.0000
  2981 O1      12.3234   6.8416  41.4930   O         1 RES1   0.0000
  2982 H1      16.1594   7.4459  41.4930   H         1 RES1   0.0000
  2983 O1      13.9049  10.3733  39.5428   O         1 RES1   0.0000
  2984 C2      14.5804  10.3733  37.2858   C         1 RES1   0.0000
  2985 H1      13.3006  10.3733  35.7068   H         1 RES1   0.0000
  2986 C1      13.5224  10.3733  38.3439   C         1 RES1   0.0000
  2987 O1       6.8416  10.3733  39.5428   O         1 RES1   0.0000
  2988 C2       6.1661  10.3733  37.2858   C         1 RES1   0.0000
  2989 H1       7.4459  10.3733  35.7068   H         1 RES1   0.0000
  2990 C1       7.2241  10.3733  38.3439   C         1 RES1   0.0000
  2991 O1       8.4231  10.3733  37.9613   O         1 RES1   0.0000
  2992 H1       4.5871  10.3733  38.5657   H         1 RES1   0.0000
  2993 O1      12.3234  10.3733  37.9613   O         1 RES1   0.0000
  2994 H1      16.1594  10.3733  38.5657   H         1 RES1   0.0000
  2995 Zr      10.3733  31.1198   2.4844   Z         1 RES1   0.0000
  2996 O1      12.3234  31.1198   3.5317   O         1 RES1   0.0000
  2997 C2      14.5804  31.1198   4.2072   C         1 RES1   0.0000
  2998 H1      16.1594  31.1198   2.9273   H         1 RES1   0.0000
  2999 O3       9.3256  30.0721   1.0477   O         1 RES1   0.0000
  3000 C1      13.5224  31.1198   3.1491   C         1 RES1   0.0000
  3001 O1       8.4231  31.1198   3.5317   O         1 RES1   0.0000
  3002 C2       6.1661  31.1198   4.2072   C         1 RES1   0.0000
  3003 H1       4.5871  31.1198   2.9273   H         1 RES1   0.0000
  3004 O3      11.4209  32.1674   1.0477   O         1 RES1   0.0000
  3005 C1       7.2241  31.1198   3.1491   C         1 RES1   0.0000
  3006 O1      10.3733  34.6514   1.9502   O         1 RES1   0.0000
  3007 C2      10.3733  35.3269   4.2072   C         1 RES1   0.0000
  3008 H1      10.3733  34.0471   5.7862   H         1 RES1   0.0000
  3009 C1      10.3733  34.2689   3.1491   C         1 RES1   0.0000
  3010 O1      10.3733  27.5881   1.9502   O         1 RES1   0.0000
  3011 C2      10.3733  26.9126   4.2072   C         1 RES1   0.0000
  3012 H1      10.3733  28.1924   5.7862   H         1 RES1   0.0000
  3013 C1      10.3733  27.9706   3.1491   C         1 RES1   0.0000
  3014 O1      10.3733  29.1696   3.5317   O         1 RES1   0.0000
  3015 H1      10.3733  25.3336   2.9273   H         1 RES1   0.0000
  3016 O3       9.3256  32.1674   1.0477   O         1 RES1   0.0000
  3017 O1      10.3733  33.0699   3.5317   O         1 RES1   0.0000
  3018 H1      10.3733  36.9059   2.9273   H         1 RES1   0.0000
  3019 O3      11.4209  30.0721   1.0477   O         1 RES1   0.0000
  3020 O1      13.9049  31.1198   1.9502   O         1 RES1   0.0000
  3021 H1      13.3006  31.1198   5.7862   H         1 RES1   0.0000
  3022 O1       6.8416  31.1198   1.9502   O         1 RES1   0.0000
  3023 H1       7.4459  31.1198   5.7862   H         1 RES1   0.0000
  3024 Zr      10.3733  31.1198  23.2309   Z         1 RES1   0.0000
  3025 O1      12.3234  31.1198  24.2782   O         1 RES1   0.0000
  3026 C2      14.5804  31.1198  24.9537   C         1 RES1   0.0000
  3027 H1      16.1594  31.1198  23.6738   H         1 RES1   0.0000
  3028 O3       9.3256  30.0721  21.7942   O         1 RES1   0.0000
  3029 C1      13.5224  31.1198  23.8956   C         1 RES1   0.0000
  3030 O1       8.4231  31.1198  24.2782   O         1 RES1   0.0000
  3031 C2       6.1661  31.1198  24.9537   C         1 RES1   0.0000
  3032 H1       4.5871  31.1198  23.6738   H         1 RES1   0.0000
  3033 O3      11.4209  32.1674  21.7942   O         1 RES1   0.0000
  3034 C1       7.2241  31.1198  23.8956   C         1 RES1   0.0000
  3035 Zr      12.8576  31.1198  20.7465   Z         1 RES1   0.0000
  3036 O1      13.9049  33.0699  20.7465   O         1 RES1   0.0000
  3037 C2      14.5804  35.3269  20.7465   C         1 RES1   0.0000
  3038 H1      13.3006  36.9059  20.7465   H         1 RES1   0.0000
  3039 O3      11.4209  30.0721  19.6988   O         1 RES1   0.0000
  3040 C1      13.5224  34.2689  20.7465   C         1 RES1   0.0000
  3041 O1      13.9049  29.1696  20.7465   O         1 RES1   0.0000
  3042 C2      14.5804  26.9126  20.7465   C         1 RES1   0.0000
  3043 H1      13.3006  25.3336  20.7465   H         1 RES1   0.0000
  3044 C1      13.5224  27.9706  20.7465   C         1 RES1   0.0000
  3045 Zr       7.8889  31.1198  20.7465   Z         1 RES1   0.0000
  3046 O1       6.8416  29.1696  20.7465   O         1 RES1   0.0000
  3047 C2       6.1661  26.9126  20.7465   C         1 RES1   0.0000
  3048 H1       7.4459  25.3336  20.7465   H         1 RES1   0.0000
  3049 O3       9.3256  32.1674  19.6988   O         1 RES1   0.0000
  3050 C1       7.2241  27.9706  20.7465   C         1 RES1   0.0000
  3051 O1       6.8416  33.0699  20.7465   O         1 RES1   0.0000
  3052 C2       6.1661  35.3269  20.7465   C         1 RES1   0.0000
  3053 H1       7.4459  36.9059  20.7465   H         1 RES1   0.0000
  3054 C1       7.2241  34.2689  20.7465   C         1 RES1   0.0000
  3055 Zr      10.3733  33.6041  20.7465   Z         1 RES1   0.0000
  3056 O1      10.3733  34.6514  22.6967   O         1 RES1   0.0000
  3057 C2      10.3733  35.3269  24.9537   C         1 RES1   0.0000
  3058 H1      10.3733  34.0471  26.5327   H         1 RES1   0.0000
  3059 C1      10.3733  34.2689  23.8956   C         1 RES1   0.0000
  3060 O1      10.3733  34.6514  18.7963   O         1 RES1   0.0000
  3061 C2      10.3733  35.3269  16.5393   C         1 RES1   0.0000
  3062 H1      10.3733  34.0471  14.9603   H         1 RES1   0.0000
  3063 C1      10.3733  34.2689  17.5974   C         1 RES1   0.0000
  3064 Zr      10.3733  28.6354  20.7465   Z         1 RES1   0.0000
  3065 O1      10.3733  27.5881  18.7963   O         1 RES1   0.0000
  3066 C2      10.3733  26.9126  16.5393   C         1 RES1   0.0000
  3067 H1      10.3733  28.1924  14.9603   H         1 RES1   0.0000
  3068 C1      10.3733  27.9706  17.5974   C         1 RES1   0.0000
  3069 O1      10.3733  27.5881  22.6967   O         1 RES1   0.0000
  3070 C2      10.3733  26.9126  24.9537   C         1 RES1   0.0000
  3071 H1      10.3733  28.1924  26.5327   H         1 RES1   0.0000
  3072 C1      10.3733  27.9706  23.8956   C         1 RES1   0.0000
  3073 Zr      10.3733  31.1198  18.2621   Z         1 RES1   0.0000
  3074 O1      10.3733  33.0699  17.2148   O         1 RES1   0.0000
  3075 H1      10.3733  36.9059  17.8192   H         1 RES1   0.0000
  3076 O3       9.3256  30.0721  19.6988   O         1 RES1   0.0000
  3077 O1      10.3733  29.1696  17.2148   O         1 RES1   0.0000
  3078 H1      10.3733  25.3336  17.8192   H         1 RES1   0.0000
  3079 O3      11.4209  32.1674  19.6988   O         1 RES1   0.0000
  3080 O1      10.3733  29.1696  24.2782   O         1 RES1   0.0000
  3081 H1      10.3733  25.3336  23.6738   H         1 RES1   0.0000
  3082 O3       9.3256  32.1674  21.7942   O         1 RES1   0.0000
  3083 O1      10.3733  33.0699  24.2782   O         1 RES1   0.0000
  3084 H1      10.3733  36.9059  23.6738   H         1 RES1   0.0000
  3085 O3      11.4209  30.0721  21.7942   O         1 RES1   0.0000
  3086 O1      12.3234  34.6514  20.7465   O         1 RES1   0.0000
  3087 H1      16.1594  34.0471  20.7465   H         1 RES1   0.0000
  3088 O1       8.4231  34.6514  20.7465   O         1 RES1   0.0000
  3089 H1       4.5871  34.0471  20.7465   H         1 RES1   0.0000
  3090 O1       8.4231  27.5881  20.7465   O         1 RES1   0.0000
  3091 H1       4.5871  28.1924  20.7465   H         1 RES1   0.0000
  3092 O1      12.3234  27.5881  20.7465   O         1 RES1   0.0000
  3093 H1      16.1594  28.1924  20.7465   H         1 RES1   0.0000
  3094 O1      13.9049  31.1198  18.7963   O         1 RES1   0.0000
  3095 C2      14.5804  31.1198  16.5393   C         1 RES1   0.0000
  3096 H1      13.3006  31.1198  14.9603   H         1 RES1   0.0000
  3097 C1      13.5224  31.1198  17.5974   C         1 RES1   0.0000
  3098 O1      13.9049  31.1198  22.6967   O         1 RES1   0.0000
  3099 H1      13.3006  31.1198  26.5327   H         1 RES1   0.0000
  3100 O1       6.8416  31.1198  22.6967   O         1 RES1   0.0000
  3101 H1       7.4459  31.1198  26.5327   H         1 RES1   0.0000
  3102 O1       6.8416  31.1198  18.7963   O         1 RES1   0.0000
  3103 C2       6.1661  31.1198  16.5393   C         1 RES1   0.0000
  3104 H1       7.4459  31.1198  14.9603   H         1 RES1   0.0000
  3105 C1       7.2241  31.1198  17.5974   C         1 RES1   0.0000
  3106 O1       8.4231  31.1198  17.2148   O         1 RES1   0.0000
  3107 H1       4.5871  31.1198  17.8192   H         1 RES1   0.0000
  3108 O1      12.3234  31.1198  17.2148   O         1 RES1   0.0000
  3109 H1      16.1594  31.1198  17.8192   H         1 RES1   0.0000
  3110 Zr      12.8576  31.1198  41.4930   Z         1 RES1   0.0000
  3111 O1      13.9049  33.0699  41.4930   O         1 RES1   0.0000
  3112 C2      14.5804  35.3269  41.4930   C         1 RES1   0.0000
  3113 H1      13.3006  36.9059  41.4930   H         1 RES1   0.0000
  3114 O3      11.4209  30.0721  40.4453   O         1 RES1   0.0000
  3115 C1      13.5224  34.2689  41.4930   C         1 RES1   0.0000
  3116 O1      13.9049  29.1696  41.4930   O         1 RES1   0.0000
  3117 C2      14.5804  26.9126  41.4930   C         1 RES1   0.0000
  3118 H1      13.3006  25.3336  41.4930   H         1 RES1   0.0000
  3119 C1      13.5224  27.9706  41.4930   C         1 RES1   0.0000
  3120 Zr       7.8889  31.1198  41.4930   Z         1 RES1   0.0000
  3121 O1       6.8416  29.1696  41.4930   O         1 RES1   0.0000
  3122 C2       6.1661  26.9126  41.4930   C         1 RES1   0.0000
  3123 H1       7.4459  25.3336  41.4930   H         1 RES1   0.0000
  3124 O3       9.3256  32.1674  40.4453   O         1 RES1   0.0000
  3125 C1       7.2241  27.9706  41.4930   C         1 RES1   0.0000
  3126 O1       6.8416  33.0699  41.4930   O         1 RES1   0.0000
  3127 C2       6.1661  35.3269  41.4930   C         1 RES1   0.0000
  3128 H1       7.4459  36.9059  41.4930   H         1 RES1   0.0000
  3129 C1       7.2241  34.2689  41.4930   C         1 RES1   0.0000
  3130 Zr      10.3733  33.6041  41.4930   Z         1 RES1   0.0000
  3131 O1      10.3733  34.6514  39.5428   O         1 RES1   0.0000
  3132 C2      10.3733  35.3269  37.2858   C         1 RES1   0.0000
  3133 H1      10.3733  34.0471  35.7068   H         1 RES1   0.0000
  3134 C1      10.3733  34.2689  38.3439   C         1 RES1   0.0000
  3135 Zr      10.3733  28.6354  41.4930   Z         1 RES1   0.0000
  3136 O1      10.3733  27.5881  39.5428   O         1 RES1   0.0000
  3137 C2      10.3733  26.9126  37.2858   C         1 RES1   0.0000
  3138 H1      10.3733  28.1924  35.7068   H         1 RES1   0.0000
  3139 C1      10.3733  27.9706  38.3439   C         1 RES1   0.0000
  3140 Zr      10.3733  31.1198  39.0086   Z         1 RES1   0.0000
  3141 O1      10.3733  33.0699  37.9613   O         1 RES1   0.0000
  3142 H1      10.3733  36.9059  38.5657   H         1 RES1   0.0000
  3143 O3       9.3256  30.0721  40.4453   O         1 RES1   0.0000
  3144 O1      10.3733  29.1696  37.9613   O         1 RES1   0.0000
  3145 H1      10.3733  25.3336  38.5657   H         1 RES1   0.0000
  3146 O3      11.4209  32.1674  40.4453   O         1 RES1   0.0000
  3147 O1      12.3234  34.6514  41.4930   O         1 RES1   0.0000
  3148 H1      16.1594  34.0471  41.4930   H         1 RES1   0.0000
  3149 O1       8.4231  34.6514  41.4930   O         1 RES1   0.0000
  3150 H1       4.5871  34.0471  41.4930   H         1 RES1   0.0000
  3151 O1       8.4231  27.5881  41.4930   O         1 RES1   0.0000
  3152 H1       4.5871  28.1924  41.4930   H         1 RES1   0.0000
  3153 O1      12.3234  27.5881  41.4930   O         1 RES1   0.0000
  3154 H1      16.1594  28.1924  41.4930   H         1 RES1   0.0000
  3155 O1      13.9049  31.1198  39.5428   O         1 RES1   0.0000
  3156 C2      14.5804  31.1198  37.2858   C         1 RES1   0.0000
  3157 H1      13.3006  31.1198  35.7068   H         1 RES1   0.0000
  3158 C1      13.5224  31.1198  38.3439   C         1 RES1   0.0000
  3159 O1       6.8416  31.1198  39.5428   O         1 RES1   0.0000
  3160 C2       6.1661  31.1198  37.2858   C         1 RES1   0.0000
  3161 H1       7.4459  31.1198  35.7068   H         1 RES1   0.0000
  3162 C1       7.2241  31.1198  38.3439   C         1 RES1   0.0000
  3163 O1       8.4231  31.1198  37.9613   O         1 RES1   0.0000
  3164 H1       4.5871  31.1198  38.5657   H         1 RES1   0.0000
  3165 O1      12.3234  31.1198  37.9613   O         1 RES1   0.0000
  3166 H1      16.1594  31.1198  38.5657   H         1 RES1   0.0000
  3167 Zr      31.1198  10.3733   2.4844   Z         1 RES1   0.0000
  3168 O1      33.0699  10.3733   3.5317   O         1 RES1   0.0000
  3169 C2      35.3269  10.3733   4.2072   C         1 RES1   0.0000
  3170 H1      36.9059  10.3733   2.9273   H         1 RES1   0.0000
  3171 O3      30.0721   9.3256   1.0477   O         1 RES1   0.0000
  3172 C1      34.2689  10.3733   3.1491   C         1 RES1   0.0000
  3173 O1      29.1696  10.3733   3.5317   O         1 RES1   0.0000
  3174 C2      26.9126  10.3733   4.2072   C         1 RES1   0.0000
  3175 H1      25.3336  10.3733   2.9273   H         1 RES1   0.0000
  3176 O3      32.1674  11.4209   1.0477   O         1 RES1   0.0000
  3177 C1      27.9706  10.3733   3.1491   C         1 RES1   0.0000
  3178 O1      31.1198  13.9049   1.9502   O         1 RES1   0.0000
  3179 C2      31.1198  14.5804   4.2072   C         1 RES1   0.0000
  3180 H1      31.1198  13.3006   5.7862   H         1 RES1   0.0000
  3181 C1      31.1198  13.5224   3.1491   C         1 RES1   0.0000
  3182 O1      31.1198   6.8416   1.9502   O         1 RES1   0.0000
  3183 C2      31.1198   6.1661   4.2072   C         1 RES1   0.0000
  3184 H1      31.1198   7.4459   5.7862   H         1 RES1   0.0000
  3185 C1      31.1198   7.2241   3.1491   C         1 RES1   0.0000
  3186 O1      31.1198   8.4231   3.5317   O         1 RES1   0.0000
  3187 H1      31.1198   4.5871   2.9273   H         1 RES1   0.0000
  3188 O3      30.0721  11.4209   1.0477   O         1 RES1   0.0000
  3189 O1      31.1198  12.3234   3.5317   O         1 RES1   0.0000
  3190 H1      31.1198  16.1594   2.9273   H         1 RES1   0.0000
  3191 O3      32.1674   9.3256   1.0477   O         1 RES1   0.0000
  3192 O1      34.6514  10.3733   1.9502   O         1 RES1   0.0000
  3193 H1      34.0471  10.3733   5.7862   H         1 RES1   0.0000
  3194 O1      27.5881  10.3733   1.9502   O         1 RES1   0.0000
  3195 H1      28.1924  10.3733   5.7862   H         1 RES1   0.0000
  3196 Zr      31.1198  10.3733  23.2309   Z         1 RES1   0.0000
  3197 O1      33.0699  10.3733  24.2782   O         1 RES1   0.0000
  3198 C2      35.3269  10.3733  24.9537   C         1 RES1   0.0000
  3199 H1      36.9059  10.3733  23.6738   H         1 RES1   0.0000
  3200 O3      30.0721   9.3256  21.7942   O         1 RES1   0.0000
  3201 C1      34.2689  10.3733  23.8956   C         1 RES1   0.0000
  3202 O1      29.1696  10.3733  24.2782   O         1 RES1   0.0000
  3203 C2      26.9126  10.3733  24.9537   C         1 RES1   0.0000
  3204 H1      25.3336  10.3733  23.6738   H         1 RES1   0.0000
  3205 O3      32.1674  11.4209  21.7942   O         1 RES1   0.0000
  3206 C1      27.9706  10.3733  23.8956   C         1 RES1   0.0000
  3207 Zr      33.6041  10.3733  20.7465   Z         1 RES1   0.0000
  3208 O1      34.6514  12.3234  20.7465   O         1 RES1   0.0000
  3209 C2      35.3269  14.5804  20.7465   C         1 RES1   0.0000
  3210 H1      34.0471  16.1594  20.7465   H         1 RES1   0.0000
  3211 O3      32.1674   9.3256  19.6988   O         1 RES1   0.0000
  3212 C1      34.2689  13.5224  20.7465   C         1 RES1   0.0000
  3213 O1      34.6514   8.4231  20.7465   O         1 RES1   0.0000
  3214 C2      35.3269   6.1661  20.7465   C         1 RES1   0.0000
  3215 H1      34.0471   4.5871  20.7465   H         1 RES1   0.0000
  3216 C1      34.2689   7.2241  20.7465   C         1 RES1   0.0000
  3217 Zr      28.6354  10.3733  20.7465   Z         1 RES1   0.0000
  3218 O1      27.5881   8.4231  20.7465   O         1 RES1   0.0000
  3219 C2      26.9126   6.1661  20.7465   C         1 RES1   0.0000
  3220 H1      28.1924   4.5871  20.7465   H         1 RES1   0.0000
  3221 O3      30.0721  11.4209  19.6988   O         1 RES1   0.0000
  3222 C1      27.9706   7.2241  20.7465   C         1 RES1   0.0000
  3223 O1      27.5881  12.3234  20.7465   O         1 RES1   0.0000
  3224 C2      26.9126  14.5804  20.7465   C         1 RES1   0.0000
  3225 H1      28.1924  16.1594  20.7465   H         1 RES1   0.0000
  3226 C1      27.9706  13.5224  20.7465   C         1 RES1   0.0000
  3227 Zr      31.1198  12.8576  20.7465   Z         1 RES1   0.0000
  3228 O1      31.1198  13.9049  22.6967   O         1 RES1   0.0000
  3229 C2      31.1198  14.5804  24.9537   C         1 RES1   0.0000
  3230 H1      31.1198  13.3006  26.5327   H         1 RES1   0.0000
  3231 C1      31.1198  13.5224  23.8956   C         1 RES1   0.0000
  3232 O1      31.1198  13.9049  18.7963   O         1 RES1   0.0000
  3233 C2      31.1198  14.5804  16.5393   C         1 RES1   0.0000
  3234 H1      31.1198  13.3006  14.9603   H         1 RES1   0.0000
  3235 C1      31.1198  13.5224  17.5974   C         1 RES1   0.0000
  3236 Zr      31.1198   7.8889  20.7465   Z         1 RES1   0.0000
  3237 O1      31.1198   6.8416  18.7963   O         1 RES1   0.0000
  3238 C2      31.1198   6.1661  16.5393   C         1 RES1   0.0000
  3239 H1      31.1198   7.4459  14.9603   H         1 RES1   0.0000
  3240 C1      31.1198   7.2241  17.5974   C         1 RES1   0.0000
  3241 O1      31.1198   6.8416  22.6967   O         1 RES1   0.0000
  3242 C2      31.1198   6.1661  24.9537   C         1 RES1   0.0000
  3243 H1      31.1198   7.4459  26.5327   H         1 RES1   0.0000
  3244 C1      31.1198   7.2241  23.8956   C         1 RES1   0.0000
  3245 Zr      31.1198  10.3733  18.2621   Z         1 RES1   0.0000
  3246 O1      31.1198  12.3234  17.2148   O         1 RES1   0.0000
  3247 H1      31.1198  16.1594  17.8192   H         1 RES1   0.0000
  3248 O3      30.0721   9.3256  19.6988   O         1 RES1   0.0000
  3249 O1      31.1198   8.4231  17.2148   O         1 RES1   0.0000
  3250 H1      31.1198   4.5871  17.8192   H         1 RES1   0.0000
  3251 O3      32.1674  11.4209  19.6988   O         1 RES1   0.0000
  3252 O1      31.1198   8.4231  24.2782   O         1 RES1   0.0000
  3253 H1      31.1198   4.5871  23.6738   H         1 RES1   0.0000
  3254 O3      30.0721  11.4209  21.7942   O         1 RES1   0.0000
  3255 O1      31.1198  12.3234  24.2782   O         1 RES1   0.0000
  3256 H1      31.1198  16.1594  23.6738   H         1 RES1   0.0000
  3257 O3      32.1674   9.3256  21.7942   O         1 RES1   0.0000
  3258 O1      33.0699  13.9049  20.7465   O         1 RES1   0.0000
  3259 H1      36.9059  13.3006  20.7465   H         1 RES1   0.0000
  3260 O1      29.1696  13.9049  20.7465   O         1 RES1   0.0000
  3261 H1      25.3336  13.3006  20.7465   H         1 RES1   0.0000
  3262 O1      29.1696   6.8416  20.7465   O         1 RES1   0.0000
  3263 H1      25.3336   7.4459  20.7465   H         1 RES1   0.0000
  3264 O1      33.0699   6.8416  20.7465   O         1 RES1   0.0000
  3265 H1      36.9059   7.4459  20.7465   H         1 RES1   0.0000
  3266 O1      34.6514  10.3733  18.7963   O         1 RES1   0.0000
  3267 C2      35.3269  10.3733  16.5393   C         1 RES1   0.0000
  3268 H1      34.0471  10.3733  14.9603   H         1 RES1   0.0000
  3269 C1      34.2689  10.3733  17.5974   C         1 RES1   0.0000
  3270 O1      34.6514  10.3733  22.6967   O         1 RES1   0.0000
  3271 H1      34.0471  10.3733  26.5327   H         1 RES1   0.0000
  3272 O1      27.5881  10.3733  22.6967   O         1 RES1   0.0000
  3273 H1      28.1924  10.3733  26.5327   H         1 RES1   0.0000
  3274 O1      27.5881  10.3733  18.7963   O         1 RES1   0.0000
  3275 C2      26.9126  10.3733  16.5393   C         1 RES1   0.0000
  3276 H1      28.1924  10.3733  14.9603   H         1 RES1   0.0000
  3277 C1      27.9706  10.3733  17.5974   C         1 RES1   0.0000
  3278 O1      29.1696  10.3733  17.2148   O         1 RES1   0.0000
  3279 H1      25.3336  10.3733  17.8192   H         1 RES1   0.0000
  3280 O1      33.0699  10.3733  17.2148   O         1 RES1   0.0000
  3281 H1      36.9059  10.3733  17.8192   H         1 RES1   0.0000
  3282 Zr      33.6041  10.3733  41.4930   Z         1 RES1   0.0000
  3283 O1      34.6514  12.3234  41.4930   O         1 RES1   0.0000
  3284 C2      35.3269  14.5804  41.4930   C         1 RES1   0.0000
  3285 H1      34.0471  16.1594  41.4930   H         1 RES1   0.0000
  3286 O3      32.1674   9.3256  40.4453   O         1 RES1   0.0000
  3287 C1      34.2689  13.5224  41.4930   C         1 RES1   0.0000
  3288 O1      34.6514   8.4231  41.4930   O         1 RES1   0.0000
  3289 C2      35.3269   6.1661  41.4930   C         1 RES1   0.0000
  3290 H1      34.0471   4.5871  41.4930   H         1 RES1   0.0000
  3291 C1      34.2689   7.2241  41.4930   C         1 RES1   0.0000
  3292 Zr      28.6354  10.3733  41.4930   Z         1 RES1   0.0000
  3293 O1      27.5881   8.4231  41.4930   O         1 RES1   0.0000
  3294 C2      26.9126   6.1661  41.4930   C         1 RES1   0.0000
  3295 H1      28.1924   4.5871  41.4930   H         1 RES1   0.0000
  3296 O3      30.0721  11.4209  40.4453   O         1 RES1   0.0000
  3297 C1      27.9706   7.2241  41.4930   C         1 RES1   0.0000
  3298 O1      27.5881  12.3234  41.4930   O         1 RES1   0.0000
  3299 C2      26.9126  14.5804  41.4930   C         1 RES1   0.0000
  3300 H1      28.1924  16.1594  41.4930   H         1 RES1   0.0000
  3301 C1      27.9706  13.5224  41.4930   C         1 RES1   0.0000
  3302 Zr      31.1198  12.8576  41.4930   Z         1 RES1   0.0000
  3303 O1      31.1198  13.9049  39.5428   O         1 RES1   0.0000
  3304 C2      31.1198  14.5804  37.2858   C         1 RES1   0.0000
  3305 H1      31.1198  13.3006  35.7068   H         1 RES1   0.0000
  3306 C1      31.1198  13.5224  38.3439   C         1 RES1   0.0000
  3307 Zr      31.1198   7.8889  41.4930   Z         1 RES1   0.0000
  3308 O1      31.1198   6.8416  39.5428   O         1 RES1   0.0000
  3309 C2      31.1198   6.1661  37.2858   C         1 RES1   0.0000
  3310 H1      31.1198   7.4459  35.7068   H         1 RES1   0.0000
  3311 C1      31.1198   7.2241  38.3439   C         1 RES1   0.0000
  3312 Zr      31.1198  10.3733  39.0086   Z         1 RES1   0.0000
  3313 O1      31.1198  12.3234  37.9613   O         1 RES1   0.0000
  3314 H1      31.1198  16.1594  38.5657   H         1 RES1   0.0000
  3315 O3      30.0721   9.3256  40.4453   O         1 RES1   0.0000
  3316 O1      31.1198   8.4231  37.9613   O         1 RES1   0.0000
  3317 H1      31.1198   4.5871  38.5657   H         1 RES1   0.0000
  3318 O3      32.1674  11.4209  40.4453   O         1 RES1   0.0000
  3319 O1      33.0699  13.9049  41.4930   O         1 RES1   0.0000
  3320 H1      36.9059  13.3006  41.4930   H         1 RES1   0.0000
  3321 O1      29.1696  13.9049  41.4930   O         1 RES1   0.0000
  3322 H1      25.3336  13.3006  41.4930   H         1 RES1   0.0000
  3323 O1      29.1696   6.8416  41.4930   O         1 RES1   0.0000
  3324 H1      25.3336   7.4459  41.4930   H         1 RES1   0.0000
  3325 O1      33.0699   6.8416  41.4930   O         1 RES1   0.0000
  3326 H1      36.9059   7.4459  41.4930   H         1 RES1   0.0000
  3327 O1      34.6514  10.3733  39.5428   O         1 RES1   0.0000
  3328 C2      35.3269  10.3733  37.2858   C         1 RES1   0.0000
  3329 H1      34.0471  10.3733  35.7068   H         1 RES1   0.0000
  3330 C1      34.2689  10.3733  38.3439   C         1 RES1   0.0000
  3331 O1      27.5881  10.3733  39.5428   O         1 RES1   0.0000
  3332 C2      26.9126  10.3733  37.2858   C         1 RES1   0.0000
  3333 H1      28.1924  10.3733  35.7068   H         1 RES1   0.0000
  3334 C1      27.9706  10.3733  38.3439   C         1 RES1   0.0000
  3335 O1      29.1696  10.3733  37.9613   O         1 RES1   0.0000
  3336 H1      25.3336  10.3733  38.5657   H         1 RES1   0.0000
  3337 O1      33.0699  10.3733  37.9613   O         1 RES1   0.0000
  3338 H1      36.9059  10.3733  38.5657   H         1 RES1   0.0000
  3339 Zr      31.1198  31.1198   2.4844   Z         1 RES1   0.0000
  3340 O1      33.0699  31.1198   3.5317   O         1 RES1   0.0000
  3341 C2      35.3269  31.1198   4.2072   C         1 RES1   0.0000
  3342 H1      36.9059  31.1198   2.9273   H         1 RES1   0.0000
  3343 O3      30.0721  30.0721   1.0477   O         1 RES1   0.0000
  3344 C1      34.2689  31.1198   3.1491   C         1 RES1   0.0000
  3345 O1      29.1696  31.1198   3.5317   O         1 RES1   0.0000
  3346 C2      26.9126  31.1198   4.2072   C         1 RES1   0.0000
  3347 H1      25.3336  31.1198   2.9273   H         1 RES1   0.0000
  3348 O3      32.1674  32.1674   1.0477   O         1 RES1   0.0000
  3349 C1      27.9706  31.1198   3.1491   C         1 RES1   0.0000
  3350 O1      31.1198  34.6514   1.9502   O         1 RES1   0.0000
  3351 C2      31.1198  35.3269   4.2072   C         1 RES1   0.0000
  3352 H1      31.1198  34.0471   5.7862   H         1 RES1   0.0000
  3353 C1      31.1198  34.2689   3.1491   C         1 RES1   0.0000
  3354 O1      31.1198  27.5881   1.9502   O         1 RES1   0.0000
  3355 C2      31.1198  26.9126   4.2072   C         1 RES1   0.0000
  3356 H1      31.1198  28.1924   5.7862   H         1 RES1   0.0000
  3357 C1      31.1198  27.9706   3.1491   C         1 RES1   0.0000
  3358 O1      31.1198  29.1696   3.5317   O         1 RES1   0.0000
  3359 H1      31.1198  25.3336   2.9273   H         1 RES1   0.0000
  3360 O3      30.0721  32.1674   1.0477   O         1 RES1   0.0000
  3361 O1      31.1198  33.0699   3.5317   O         1 RES1   0.0000
  3362 H1      31.1198  36.9059   2.9273   H         1 RES1   0.0000
  3363 O3      32.1674  30.0721   1.0477   O         1 RES1   0.0000
  3364 O1      34.6514  31.1198   1.9502   O         1 RES1   0.0000
  3365 H1      34.0471  31.1198   5.7862   H         1 RES1   0.0000
  3366 O1      27.5881  31.1198   1.9502   O         1 RES1   0.0000
  3367 H1      28.1924  31.1198   5.7862   H         1 RES1   0.0000
  3368 Zr      31.1198  31.1198  23.2309   Z         1 RES1   0.0000
  3369 O1      33.0699  31.1198  24.2782   O         1 RES1   0.0000
  3370 C2      35.3269  31.1198  24.9537   C         1 RES1   0.0000
  3371 H1      36.9059  31.1198  23.6738   H         1 RES1   0.0000
  3372 O3      30.0721  30.0721  21.7942   O         1 RES1   0.0000
  3373 C1      34.2689  31.1198  23.8956   C         1 RES1   0.0000
  3374 O1      29.1696  31.1198  24.2782   O         1 RES1   0.0000
  3375 C2      26.9126  31.1198  24.9537   C         1 RES1   0.0000
  3376 H1      25.3336  31.1198  23.6738   H         1 RES1   0.0000
  3377 O3      32.1674  32.1674  21.7942   O         1 RES1   0.0000
  3378 C1      27.9706  31.1198  23.8956   C         1 RES1   0.0000
  3379 Zr      33.6041  31.1198  20.7465   Z         1 RES1   0.0000
  3380 O1      34.6514  33.0699  20.7465   O         1 RES1   0.0000
  3381 C2      35.3269  35.3269  20.7465   C         1 RES1   0.0000
  3382 H1      34.0471  36.9059  20.7465   H         1 RES1   0.0000
  3383 O3      32.1674  30.0721  19.6988   O         1 RES1   0.0000
  3384 C1      34.2689  34.2689  20.7465   C         1 RES1   0.0000
  3385 O1      34.6514  29.1696  20.7465   O         1 RES1   0.0000
  3386 C2      35.3269  26.9126  20.7465   C         1 RES1   0.0000
  3387 H1      34.0471  25.3336  20.7465   H         1 RES1   0.0000
  3388 C1      34.2689  27.9706  20.7465   C         1 RES1   0.0000
  3389 Zr      28.6354  31.1198  20.7465   Z         1 RES1   0.0000
  3390 O1      27.5881  29.1696  20.7465   O         1 RES1   0.0000
  3391 C2      26.9126  26.9126  20.7465   C         1 RES1   0.0000
  3392 H1      28.1924  25.3336  20.7465   H         1 RES1   0.0000
  3393 O3      30.0721  32.1674  19.6988   O         1 RES1   0.0000
  3394 C1      27.9706  27.9706  20.7465   C         1 RES1   0.0000
  3395 O1      27.5881  33.0699  20.7465   O         1 RES1   0.0000
  3396 C2      26.9126  35.3269  20.7465   C         1 RES1   0.0000
  3397 H1      28.1924  36.9059  20.7465   H         1 RES1   0.0000
  3398 C1      27.9706  34.2689  20.7465   C         1 RES1   0.0000
  3399 Zr      31.1198  33.6041  20.7465   Z         1 RES1   0.0000
  3400 O1      31.1198  34.6514  22.6967   O         1 RES1   0.0000
  3401 C2      31.1198  35.3269  24.9537   C         1 RES1   0.0000
  3402 H1      31.1198  34.0471  26.5327   H         1 RES1   0.0000
  3403 C1      31.1198  34.2689  23.8956   C         1 RES1   0.0000
  3404 O1      31.1198  34.6514  18.7963   O         1 RES1   0.0000
  3405 C2      31.1198  35.3269  16.5393   C         1 RES1   0.0000
  3406 H1      31.1198  34.0471  14.9603   H         1 RES1   0.0000
  3407 C1      31.1198  34.2689  17.5974   C         1 RES1   0.0000
  3408 Zr      31.1198  28.6354  20.7465   Z         1 RES1   0.0000
  3409 O1      31.1198  27.5881  18.7963   O         1 RES1   0.0000
  3410 C2      31.1198  26.9126  16.5393   C         1 RES1   0.0000
  3411 H1      31.1198  28.1924  14.9603   H         1 RES1   0.0000
  3412 C1      31.1198  27.9706  17.5974   C         1 RES1   0.0000
  3413 O1      31.1198  27.5881  22.6967   O         1 RES1   0.0000
  3414 C2      31.1198  26.9126  24.9537   C         1 RES1   0.0000
  3415 H1      31.1198  28.1924  26.5327   H         1 RES1   0.0000
  3416 C1      31.1198  27.9706  23.8956   C         1 RES1   0.0000
  3417 Zr      31.1198  31.1198  18.2621   Z         1 RES1   0.0000
  3418 O1      31.1198  33.0699  17.2148   O         1 RES1   0.0000
  3419 H1      31.1198  36.9059  17.8192   H         1 RES1   0.0000
  3420 O3      30.0721  30.0721  19.6988   O         1 RES1   0.0000
  3421 O1      31.1198  29.1696  17.2148   O         1 RES1   0.0000
  3422 H1      31.1198  25.3336  17.8192   H         1 RES1   0.0000
  3423 O3      32.1674  32.1674  19.6988   O         1 RES1   0.0000
  3424 O1      31.1198  29.1696  24.2782   O         1 RES1   0.0000
  3425 H1      31.1198  25.3336  23.6738   H         1 RES1   0.0000
  3426 O3      30.0721  32.1674  21.7942   O         1 RES1   0.0000
  3427 O1      31.1198  33.0699  24.2782   O         1 RES1   0.0000
  3428 H1      31.1198  36.9059  23.6738   H         1 RES1   0.0000
  3429 O3      32.1674  30.0721  21.7942   O         1 RES1   0.0000
  3430 O1      33.0699  34.6514  20.7465   O         1 RES1   0.0000
  3431 H1      36.9059  34.0471  20.7465   H         1 RES1   0.0000
  3432 O1      29.1696  34.6514  20.7465   O         1 RES1   0.0000
  3433 H1      25.3336  34.0471  20.7465   H         1 RES1   0.0000
  3434 O1      29.1696  27.5881  20.7465   O         1 RES1   0.0000
  3435 H1      25.3336  28.1924  20.7465   H         1 RES1   0.0000
  3436 O1      33.0699  27.5881  20.7465   O         1 RES1   0.0000
  3437 H1      36.9059  28.1924  20.7465   H         1 RES1   0.0000
  3438 O1      34.6514  31.1198  18.7963   O         1 RES1   0.0000
  3439 C2      35.3269  31.1198  16.5393   C         1 RES1   0.0000
  3440 H1      34.0471  31.1198  14.9603   H         1 RES1   0.0000
  3441 C1      34.2689  31.1198  17.5974   C         1 RES1   0.0000
  3442 O1      34.6514  31.1198  22.6967   O         1 RES1   0.0000
  3443 H1      34.0471  31.1198  26.5327   H         1 RES1   0.0000
  3444 O1      27.5881  31.1198  22.6967   O         1 RES1   0.0000
  3445 H1      28.1924  31.1198  26.5327   H         1 RES1   0.0000
  3446 O1      27.5881  31.1198  18.7963   O         1 RES1   0.0000
  3447 C2      26.9126  31.1198  16.5393   C         1 RES1   0.0000
  3448 H1      28.1924  31.1198  14.9603   H         1 RES1   0.0000
  3449 C1      27.9706  31.1198  17.5974   C         1 RES1   0.0000
  3450 O1      29.1696  31.1198  17.2148   O         1 RES1   0.0000
  3451 H1      25.3336  31.1198  17.8192   H         1 RES1   0.0000
  3452 O1      33.0699  31.1198  17.2148   O         1 RES1   0.0000
  3453 H1      36.9059  31.1198  17.8192   H         1 RES1   0.0000
  3454 Zr      33.6041  31.1198  41.4930   Z         1 RES1   0.0000
  3455 O1      34.6514  33.0699  41.4930   O         1 RES1   0.0000
  3456 C2      35.3269  35.3269  41.4930   C         1 RES1   0.0000
  3457 H1      34.0471  36.9059  41.4930   H         1 RES1   0.0000
  3458 O3      32.1674  30.0721  40.4453   O         1 RES1   0.0000
  3459 C1      34.2689  34.2689  41.4930   C         1 RES1   0.0000
  3460 O1      34.6514  29.1696  41.4930   O         1 RES1   0.0000
  3461 C2      35.3269  26.9126  41.4930   C         1 RES1   0.0000
  3462 H1      34.0471  25.3336  41.4930   H         1 RES1   0.0000
  3463 C1      34.2689  27.9706  41.4930   C         1 RES1   0.0000
  3464 Zr      28.6354  31.1198  41.4930   Z         1 RES1   0.0000
  3465 O1      27.5881  29.1696  41.4930   O         1 RES1   0.0000
  3466 C2      26.9126  26.9126  41.4930   C         1 RES1   0.0000
  3467 H1      28.1924  25.3336  41.4930   H         1 RES1   0.0000
  3468 O3      30.0721  32.1674  40.4453   O         1 RES1   0.0000
  3469 C1      27.9706  27.9706  41.4930   C         1 RES1   0.0000
  3470 O1      27.5881  33.0699  41.4930   O         1 RES1   0.0000
  3471 C2      26.9126  35.3269  41.4930   C         1 RES1   0.0000
  3472 H1      28.1924  36.9059  41.4930   H         1 RES1   0.0000
  3473 C1      27.9706  34.2689  41.4930   C         1 RES1   0.0000
  3474 Zr      31.1198  33.6041  41.4930   Z         1 RES1   0.0000
  3475 O1      31.1198  34.6514  39.5428   O         1 RES1   0.0000
  3476 C2      31.1198  35.3269  37.2858   C         1 RES1   0.0000
  3477 H1      31.1198  34.0471  35.7068   H         1 RES1   0.0000
  3478 C1      31.1198  34.2689  38.3439   C         1 RES1   0.0000
  3479 Zr      31.1198  28.6354  41.4930   Z         1 RES1   0.0000
  3480 O1      31.1198  27.5881  39.5428   O         1 RES1   0.0000
  3481 C2      31.1198  26.9126  37.2858   C         1 RES1   0.0000
  3482 H1      31.1198  28.1924  35.7068   H         1 RES1   0.0000
  3483 C1      31.1198  27.9706  38.3439   C         1 RES1   0.0000
  3484 Zr      31.1198  31.1198  39.0086   Z         1 RES1   0.0000
  3485 O1      31.1198  33.0699  37.9613   O         1 RES1   0.0000
  3486 H1      31.1198  36.9059  38.5657   H         1 RES1   0.0000
  3487 O3      30.0721  30.0721  40.4453   O         1 RES1   0.0000
  3488 O1      31.1198  29.1696  37.9613   O         1 RES1   0.0000
  3489 H1      31.1198  25.3336  38.5657   H         1 RES1   0.0000
  3490 O3      32.1674  32.1674  40.4453   O         1 RES1   0.0000
  3491 O1      33.0699  34.6514  41.4930   O         1 RES1   0.0000
  3492 H1      36.9059  34.0471  41.4930   H         1 RES1   0.0000
  3493 O1      29.1696  34.6514  41.4930   O         1 RES1   0.0000
  3494 H1      25.3336  34.0471  41.4930   H         1 RES1   0.0000
  3495 O1      29.1696  27.5881  41.4930   O         1 RES1   0.0000
  3496 H1      25.3336  28.1924  41.4930   H         1 RES1   0.0000
  3497 O1      33.0699  27.5881  41.4930   O         1 RES1   0.0000
  3498 H1      36.9059  28.1924  41.4930   H         1 RES1   0.0000
  3499 O1      34.6514  31.1198  39.5428   O         1 RES1   0.0000
  3500 C2      35.3269  31.1198  37.2858   C         1 RES1   0.0000
  3501 H1      34.0471  31.1198  35.7068   H         1 RES1   0.0000
  3502 C1      34.2689  31.1198  38.3439   C         1 RES1   0.0000
  3503 O1      27.5881  31.1198  39.5428   O         1 RES1   0.0000
  3504 C2      26.9126  31.1198  37.2858   C         1 RES1   0.0000
  3505 H1      28.1924  31.1198  35.7068   H         1 RES1   0.0000
  3506 C1      27.9706  31.1198  38.3439   C         1 RES1   0.0000
  3507 O1      29.1696  31.1198  37.9613   O         1 RES1   0.0000
  3508 H1      25.3336  31.1198  38.5657   H         1 RES1   0.0000
  3509 O1      33.0699  31.1198  37.9613   O         1 RES1   0.0000
  3510 H1      36.9059  31.1198  38.5657   H         1 RES1   0.0000
@<TRIPOS>BOND     1     1     5   un
     2     2     3   un
     3     2     5   un
     4     2     7   un
     5     3     4   un
     6     3    10   un
     7     5     6   un
     8     7     8   un
     9     7     9   un
    10     9  2875   un
    11     9  2876   un
    12    10  2875   un
    13    10  2919   un
    14    11    15   un
    15    12    13   un
    16    12    15   un
    17    12    17   un
    18    13    14   un
    19    13    20   un
    20    15    16   un
    21    17    18   un
    22    17    19   un
    23    19  2950   un
    24    19  2951   un
    25    20  2950   un
    26    20  2980   un
    27    21    25   un
    28    22    23   un
    29    22    25   un
    30    22    27   un
    31    23    24   un
    32    23    30   un
    33    25    26   un
    34    27    28   un
    35    27    29   un
    36    29  2168   un
    37    29  2172   un
    38    30  2168   un
    39    30  2169   un
    40    31    35   un
    41    32    33   un
    42    32    35   un
    43    32    63   un
    44    33    34   un
    45    33    71   un
    46    35    62   un
    47    36    37   un
    48    37    38   un
    49    37    42   un
    50    37    44   un
    51    37    49   un
    52    37    50   un
    53    37    57   un
    54    37    62   un
    55    38    43   un
    56    39    40   un
    57    39    43   un
    58    39    52   un
    59    40    41   un
    60    40    75   un
    61    43    51   un
    62    44    48   un
    63    45    46   un
    64    45    48   un
    65    45    55   un
    66    46    47   un
    67    46    74   un
    68    48    54   un
    69    52    53   un
    70    52    72   un
    71    55    56   un
    72    55    73   un
    73    57    61   un
    74    58    59   un
    75    58    61   un
    76    58    66   un
    77    59    60   un
    78    59    68   un
    79    61    65   un
    80    63    64   un
    81    63    69   un
    82    66    67   un
    83    66    70   un
    84    68  2088   un
    85    68  2089   un
    86    69  2270   un
    87    69  2274   un
    88    70  2088   un
    89    70  2166   un
    90    71  2270   un
    91    71  2271   un
    92    72  3047   un
    93    72  3048   un
    94    73  2880   un
    95    73  2881   un
    96    74  2880   un
    97    74  2917   un
    98    75  3047   un
    99    75  3091   un
   100    76    77   un
   101    76    81   un
   102    76    83   un
   103    76    88   un
   104    76    95   un
   105    77    82   un
   106    78    79   un
   107    78    82   un
   108    78    90   un
   109    79    80   un
   110    79   108   un
   111    82    89   un
   112    83    87   un
   113    84    85   un
   114    84    87   un
   115    84    93   un
   116    85    86   un
   117    85   107   un
   118    87    92   un
   119    90    91   un
   120    90   105   un
   121    93    94   un
   122    93   106   un
   123    95    99   un
   124    96    97   un
   125    96    99   un
   126    96   101   un
   127    97    98   un
   128    97   103   un
   129    99   100   un
   130   101   102   un
   131   101   104   un
   132   103  2190   un
   133   103  2191   un
   134   104  2190   un
   135   104  2268   un
   136   105  3122   un
   137   105  3123   un
   138   106  2955   un
   139   106  2956   un
   140   107  2955   un
   141   107  2978   un
   142   108  3122   un
   143   108  3152   un
   144   109   113   un
   145   110   111   un
   146   110   113   un
   147   110   115   un
   148   111   112   un
   149   111   118   un
   150   113   114   un
   151   115   116   un
   152   115   117   un
   153   117  2339   un
   154   117  2343   un
   155   118  2339   un
   156   118  2340   un
   157   119   123   un
   158   120   121   un
   159   120   123   un
   160   120   141   un
   161   121   122   un
   162   121   149   un
   163   123   140   un
   164   124   125   un
   165   124   126   un
   166   124   131   un
   167   124   135   un
   168   124   140   un
   169   126   130   un
   170   127   128   un
   171   127   130   un
   172   127   133   un
   173   128   129   un
   174   128   151   un
   175   130   132   un
   176   133   134   un
   177   133   150   un
   178   135   139   un
   179   136   137   un
   180   136   139   un
   181   136   144   un
   182   137   138   un
   183   137   146   un
   184   139   143   un
   185   141   142   un
   186   141   147   un
   187   144   145   un
   188   144   148   un
   189   146  2292   un
   190   146  2293   un
   191   147  2404   un
   192   147  2408   un
   193   148  2292   un
   194   148  2337   un
   195   149  2404   un
   196   149  2405   un
   197   150  3052   un
   198   150  3053   un
   199   151  3052   un
   200   151  3089   un
   201   152   153   un
   202   152   154   un
   203   152   162   un
   204   154   158   un
   205   155   156   un
   206   155   158   un
   207   155   160   un
   208   156   157   un
   209   156   173   un
   210   158   159   un
   211   160   161   un
   212   160   172   un
   213   162   166   un
   214   163   164   un
   215   163   166   un
   216   163   168   un
   217   164   165   un
   218   164   170   un
   219   166   167   un
   220   168   169   un
   221   168   171   un
   222   170  2357   un
   223   170  2358   un
   224   171  2357   un
   225   171  2402   un
   226   172  3127   un
   227   172  3128   un
   228   173  3127   un
   229   173  3150   un
   230   174   178   un
   231   175   176   un
   232   175   178   un
   233   175   180   un
   234   176   177   un
   235   176   183   un
   236   178   179   un
   237   180   181   un
   238   180   182   un
   239   182  1291   un
   240   182  1292   un
   241   183  1291   un
   242   183  1303   un
   243   184   196   un
   244   185   189   un
   245   186   187   un
   246   186   189   un
   247   186   216   un
   248   187   188   un
   249   187   227   un
   250   189   215   un
   251   190   196   un
   252   191   195   un
   253   192   193   un
   254   192   195   un
   255   192   219   un
   256   193   194   un
   257   193   228   un
   258   195   218   un
   259   196   197   un
   260   196   202   un
   261   196   210   un
   262   196   211   un
   263   196   215   un
   264   196   218   un
   265   197   201   un
   266   198   199   un
   267   198   201   un
   268   198   213   un
   269   199   200   un
   270   199   223   un
   271   201   212   un
   272   202   206   un
   273   203   204   un
   274   203   206   un
   275   203   208   un
   276   204   205   un
   277   204   224   un
   278   206   207   un
   279   208   209   un
   280   208   222   un
   281   213   214   un
   282   213   221   un
   283   216   217   un
   284   216   226   un
   285   219   220   un
   286   219   225   un
   287   221  1409   un
   288   221  1410   un
   289   222  1295   un
   290   222  1296   un
   291   223  1409   un
   292   223  1421   un
   293   224  1295   un
   294   224  1306   un
   295   225  2870   un
   296   225  2871   un
   297   226  3219   un
   298   226  3220   un
   299   227  3219   un
   300   227  3263   un
   301   228  2870   un
   302   228  2921   un
   303   229   233   un
   304   230   231   un
   305   230   233   un
   306   230   251   un
   307   231   232   un
   308   231   260   un
   309   233   250   un
   310   234   240   un
   311   235   239   un
   312   236   237   un
   313   236   239   un
   314   236   254   un
   315   237   238   un
   316   237   261   un
   317   239   253   un
   318   240   241   un
   319   240   249   un
   320   240   250   un
   321   240   253   un
   322   241   245   un
   323   242   243   un
   324   242   245   un
   325   242   247   un
   326   243   244   un
   327   243   257   un
   328   245   246   un
   329   247   248   un
   330   247   256   un
   331   251   252   un
   332   251   259   un
   333   254   255   un
   334   254   258   un
   335   256  1413   un
   336   256  1414   un
   337   257  1413   un
   338   257  1424   un
   339   258  2945   un
   340   258  2946   un
   341   259  3294   un
   342   259  3295   un
   343   260  3294   un
   344   260  3324   un
   345   261  2945   un
   346   261  2982   un
   347   262   263   un
   348   262   267   un
   349   262   269   un
   350   262   273   un
   351   262   285   un
   352   262   288   un
   353   262   289   un
   354   262   292   un
   355   263   268   un
   356   264   265   un
   357   264   268   un
   358   264   294   un
   359   265   266   un
   360   265   306   un
   361   268   293   un
   362   269   274   un
   363   270   271   un
   364   270   274   un
   365   270   297   un
   366   271   272   un
   367   271   305   un
   368   274   296   un
   369   275   279   un
   370   276   277   un
   371   276   279   un
   372   276   290   un
   373   277   278   un
   374   277   302   un
   375   279   289   un
   376   280   284   un
   377   281   282   un
   378   281   284   un
   379   281   286   un
   380   282   283   un
   381   282   301   un
   382   284   285   un
   383   286   287   un
   384   286   299   un
   385   290   291   un
   386   290   300   un
   387   294   295   un
   388   294   303   un
   389   297   298   un
   390   297   304   un
   391   299  1286   un
   392   299  1287   un
   393   300  1527   un
   394   300  1528   un
   395   301  1286   un
   396   301  1300   un
   397   302  1527   un
   398   302  1539   un
   399   303  2576   un
   400   303  2580   un
   401   304  2160   un
   402   304  2174   un
   403   305  2160   un
   404   305  2161   un
   405   306  2576   un
   406   306  2577   un
   407   307   308   un
   408   307   312   un
   409   307   314   un
   410   307   318   un
   411   307   375   un
   412   307   378   un
   413   307   379   un
   414   307   382   un
   415   308   313   un
   416   309   310   un
   417   309   313   un
   418   309   401   un
   419   310   311   un
   420   310   432   un
   421   312   332   un
   422   312   355   un
   423   313   400   un
   424   314   319   un
   425   315   316   un
   426   315   319   un
   427   315   404   un
   428   316   317   un
   429   316   429   un
   430   318   320   un
   431   318   344   un
   432   319   403   un
   433   320   321   un
   434   320   325   un
   435   320   327   un
   436   320   374   un
   437   320   382   un
   438   320   395   un
   439   320   400   un
   440   321   326   un
   441   322   323   un
   442   322   326   un
   443   322   384   un
   444   323   324   un
   445   323   439   un
   446   325   355   un
   447   325   366   un
   448   326   383   un
   449   327   331   un
   450   328   329   un
   451   328   331   un
   452   328   393   un
   453   329   330   un
   454   329   438   un
   455   331   392   un
   456   332   333   un
   457   332   337   un
   458   332   339   un
   459   332   370   un
   460   332   378   un
   461   332   403   un
   462   332   406   un
   463   333   338   un
   464   334   335   un
   465   334   338   un
   466   334   390   un
   467   335   336   un
   468   335   437   un
   469   337   344   un
   470   337   366   un
   471   338   389   un
   472   339   343   un
   473   340   341   un
   474   340   343   un
   475   340   387   un
   476   341   342   un
   477   341   440   un
   478   343   386   un
   479   344   345   un
   480   344   350   un
   481   344   374   un
   482   344   378   un
   483   344   383   un
   484   344   386   un
   485   345   349   un
   486   346   347   un
   487   346   349   un
   488   346   380   un
   489   347   348   un
   490   347   422   un
   491   349   379   un
   492   350   354   un
   493   351   352   un
   494   351   354   un
   495   351   368   un
   496   352   353   un
   497   352   423   un
   498   354   367   un
   499   355   356   un
   500   355   361   un
   501   355   370   un
   502   355   382   un
   503   355   389   un
   504   355   392   un
   505   356   360   un
   506   357   358   un
   507   357   360   un
   508   357   372   un
   509   358   359   un
   510   358   424   un
   511   360   371   un
   512   361   365   un
   513   362   363   un
   514   362   365   un
   515   362   376   un
   516   363   364   un
   517   363   421   un
   518   365   375   un
   519   366   367   un
   520   366   370   un
   521   366   371   un
   522   366   374   un
   523   366   411   un
   524   366   414   un
   525   368   369   un
   526   368   420   un
   527   372   373   un
   528   372   417   un
   529   376   377   un
   530   376   418   un
   531   380   381   un
   532   380   419   un
   533   384   385   un
   534   384   435   un
   535   387   388   un
   536   387   434   un
   537   390   391   un
   538   390   433   un
   539   393   394   un
   540   393   436   un
   541   395   399   un
   542   396   397   un
   543   396   399   un
   544   396   415   un
   545   397   398   un
   546   397   426   un
   547   399   414   un
   548   401   402   un
   549   401   427   un
   550   404   405   un
   551   404   428   un
   552   406   410   un
   553   407   408   un
   554   407   410   un
   555   407   412   un
   556   408   409   un
   557   408   425   un
   558   410   411   un
   559   412   413   un
   560   412   430   un
   561   415   416   un
   562   415   431   un
   563   417  1282   un
   564   417  1283   un
   565   418  1404   un
   566   418  1405   un
   567   419  1645   un
   568   419  1646   un
   569   420  1531   un
   570   420  1532   un
   571   421  1404   un
   572   421  1418   un
   573   422  1645   un
   574   422  1657   un
   575   423  1531   un
   576   423  1542   un
   577   424  1282   un
   578   424  1309   un
   579   425  2083   un
   580   425  2084   un
   581   426  2496   un
   582   426  2497   un
   583   427  2678   un
   584   427  2682   un
   585   428  2262   un
   586   428  2276   un
   587   429  2262   un
   588   429  2263   un
   589   430  2083   un
   590   430  2164   un
   591   431  2496   un
   592   431  2574   un
   593   432  2678   un
   594   432  2679   un
   595   433  2865   un
   596   433  2866   un
   597   434  3042   un
   598   434  3043   un
   599   435  3391   un
   600   435  3392   un
   601   436  3224   un
   602   436  3225   un
   603   437  2865   un
   604   437  2915   un
   605   438  3224   un
   606   438  3261   un
   607   439  3391   un
   608   439  3435   un
   609   440  3042   un
   610   440  3093   un
   611   441   442   un
   612   441   446   un
   613   441   448   un
   614   441   485   un
   615   441   498   un
   616   442   447   un
   617   443   444   un
   618   443   447   un
   619   443   487   un
   620   444   445   un
   621   444   528   un
   622   446   471   un
   623   446   477   un
   624   447   486   un
   625   448   452   un
   626   449   450   un
   627   449   452   un
   628   449   496   un
   629   450   451   un
   630   450   527   un
   631   452   495   un
   632   453   454   un
   633   453   458   un
   634   453   460   un
   635   453   481   un
   636   453   503   un
   637   454   459   un
   638   455   456   un
   639   455   459   un
   640   455   493   un
   641   456   457   un
   642   456   526   un
   643   458   465   un
   644   458   477   un
   645   459   492   un
   646   460   464   un
   647   461   462   un
   648   461   464   un
   649   461   490   un
   650   462   463   un
   651   462   529   un
   652   464   489   un
   653   465   466   un
   654   465   485   un
   655   465   486   un
   656   465   489   un
   657   466   470   un
   658   467   468   un
   659   467   470   un
   660   467   479   un
   661   468   469   un
   662   468   516   un
   663   470   478   un
   664   471   472   un
   665   471   481   un
   666   471   492   un
   667   471   495   un
   668   472   476   un
   669   473   474   un
   670   473   476   un
   671   473   483   un
   672   474   475   un
   673   474   517   un
   674   476   482   un
   675   477   478   un
   676   477   481   un
   677   477   482   un
   678   477   485   un
   679   477   508   un
   680   477   511   un
   681   479   480   un
   682   479   515   un
   683   483   484   un
   684   483   514   un
   685   487   488   un
   686   487   524   un
   687   490   491   un
   688   490   523   un
   689   493   494   un
   690   493   522   un
   691   496   497   un
   692   496   525   un
   693   498   502   un
   694   499   500   un
   695   499   502   un
   696   499   512   un
   697   500   501   un
   698   500   519   un
   699   502   511   un
   700   503   507   un
   701   504   505   un
   702   504   507   un
   703   504   509   un
   704   505   506   un
   705   505   518   un
   706   507   508   un
   707   509   510   un
   708   509   520   un
   709   512   513   un
   710   512   521   un
   711   514  1400   un
   712   514  1401   un
   713   515  1649   un
   714   515  1650   un
   715   516  1649   un
   716   516  1660   un
   717   517  1400   un
   718   517  1427   un
   719   518  2185   un
   720   518  2186   un
   721   519  2598   un
   722   519  2599   un
   723   520  2185   un
   724   520  2266   un
   725   521  2598   un
   726   521  2676   un
   727   522  2940   un
   728   522  2941   un
   729   523  3117   un
   730   523  3118   un
   731   524  3466   un
   732   524  3467   un
   733   525  3299   un
   734   525  3300   un
   735   526  2940   un
   736   526  2976   un
   737   527  3299   un
   738   527  3322   un
   739   528  3466   un
   740   528  3496   un
   741   529  3117   un
   742   529  3154   un
   743   530   531   un
   744   530   535   un
   745   530   537   un
   746   530   547   un
   747   530   550   un
   748   531   536   un
   749   532   533   un
   750   532   536   un
   751   532   552   un
   752   533   534   un
   753   533   562   un
   754   536   551   un
   755   537   541   un
   756   538   539   un
   757   538   541   un
   758   538   555   un
   759   539   540   un
   760   539   561   un
   761   541   554   un
   762   542   546   un
   763   543   544   un
   764   543   546   un
   765   543   548   un
   766   544   545   un
   767   544   558   un
   768   546   547   un
   769   548   549   un
   770   548   557   un
   771   552   553   un
   772   552   559   un
   773   555   556   un
   774   555   560   un
   775   557  1522   un
   776   557  1523   un
   777   558  1522   un
   778   558  1536   un
   779   559  2747   un
   780   559  2751   un
   781   560  2331   un
   782   560  2345   un
   783   561  2331   un
   784   561  2332   un
   785   562  2747   un
   786   562  2748   un
   787   563   564   un
   788   563   568   un
   789   563   570   un
   790   563   604   un
   791   563   607   un
   792   564   569   un
   793   565   566   un
   794   565   569   un
   795   565   620   un
   796   566   567   un
   797   566   647   un
   798   568   582   un
   799   568   588   un
   800   569   619   un
   801   570   574   un
   802   571   572   un
   803   571   574   un
   804   571   623   un
   805   572   573   un
   806   572   644   un
   807   574   622   un
   808   575   576   un
   809   575   577   un
   810   575   607   un
   811   575   614   un
   812   575   619   un
   813   576   588   un
   814   576   599   un
   815   577   581   un
   816   578   579   un
   817   578   581   un
   818   578   612   un
   819   579   580   un
   820   579   651   un
   821   581   611   un
   822   582   583   un
   823   582   600   un
   824   582   622   un
   825   582   625   un
   826   583   587   un
   827   584   585   un
   828   584   587   un
   829   584   609   un
   830   585   586   un
   831   585   650   un
   832   587   608   un
   833   588   589   un
   834   588   594   un
   835   588   600   un
   836   588   607   un
   837   588   608   un
   838   588   611   un
   839   589   593   un
   840   590   591   un
   841   590   593   un
   842   590   602   un
   843   591   592   un
   844   591   639   un
   845   593   601   un
   846   594   598   un
   847   595   596   un
   848   595   598   un
   849   595   605   un
   850   596   597   un
   851   596   638   un
   852   598   604   un
   853   599   600   un
   854   599   601   un
   855   599   630   un
   856   599   633   un
   857   602   603   un
   858   602   636   un
   859   605   606   un
   860   605   637   un
   861   609   610   un
   862   609   648   un
   863   612   613   un
   864   612   649   un
   865   614   618   un
   866   615   616   un
   867   615   618   un
   868   615   634   un
   869   616   617   un
   870   616   641   un
   871   618   633   un
   872   620   621   un
   873   620   642   un
   874   623   624   un
   875   623   643   un
   876   625   629   un
   877   626   627   un
   878   626   629   un
   879   626   631   un
   880   627   628   un
   881   627   640   un
   882   629   630   un
   883   631   632   un
   884   631   645   un
   885   634   635   un
   886   634   646   un
   887   636  1518   un
   888   636  1519   un
   889   637  1640   un
   890   637  1641   un
   891   638  1640   un
   892   638  1654   un
   893   639  1518   un
   894   639  1545   un
   895   640  2287   un
   896   640  2288   un
   897   641  2700   un
   898   641  2701   un
   899   642  2812   un
   900   642  2816   un
   901   643  2396   un
   902   643  2410   un
   903   644  2396   un
   904   644  2397   un
   905   645  2287   un
   906   645  2335   un
   907   646  2700   un
   908   646  2745   un
   909   647  2812   un
   910   647  2813   un
   911   648  3037   un
   912   648  3038   un
   913   649  3396   un
   914   649  3397   un
   915   650  3037   un
   916   650  3087   un
   917   651  3396   un
   918   651  3433   un
   919   652   653   un
   920   652   654   un
   921   652   682   un
   922   653   665   un
   923   653   671   un
   924   654   658   un
   925   655   656   un
   926   655   658   un
   927   655   680   un
   928   656   657   un
   929   656   707   un
   930   658   679   un
   931   659   660   un
   932   659   672   un
   933   659   687   un
   934   660   664   un
   935   661   662   un
   936   661   664   un
   937   661   677   un
   938   662   663   un
   939   662   706   un
   940   664   676   un
   941   665   666   un
   942   665   672   un
   943   665   676   un
   944   665   679   un
   945   666   670   un
   946   667   668   un
   947   667   670   un
   948   667   674   un
   949   668   669   un
   950   668   699   un
   951   670   673   un
   952   671   672   un
   953   671   673   un
   954   671   692   un
   955   671   695   un
   956   674   675   un
   957   674   698   un
   958   677   678   un
   959   677   704   un
   960   680   681   un
   961   680   705   un
   962   682   686   un
   963   683   684   un
   964   683   686   un
   965   683   696   un
   966   684   685   un
   967   684   701   un
   968   686   695   un
   969   687   691   un
   970   688   689   un
   971   688   691   un
   972   688   693   un
   973   689   690   un
   974   689   700   un
   975   691   692   un
   976   693   694   un
   977   693   702   un
   978   696   697   un
   979   696   703   un
   980   698  1636   un
   981   698  1637   un
   982   699  1636   un
   983   699  1663   un
   984   700  2352   un
   985   700  2353   un
   986   701  2765   un
   987   701  2766   un
   988   702  2352   un
   989   702  2400   un
   990   703  2765   un
   991   703  2810   un
   992   704  3112   un
   993   704  3113   un
   994   705  3471   un
   995   705  3472   un
   996   706  3112   un
   997   706  3148   un
   998   707  3471   un
   999   707  3494   un
  1000   708   712   un
  1001   709   710   un
  1002   709   712   un
  1003   709   714   un
  1004   710   711   un
  1005   710   717   un
  1006   712   713   un
  1007   714   715   un
  1008   714   716   un
  1009   716  1745   un
  1010   716  1746   un
  1011   717  1745   un
  1012   717  1757   un
  1013   718   724   un
  1014   719   723   un
  1015   720   721   un
  1016   720   723   un
  1017   720   743   un
  1018   721   722   un
  1019   721   750   un
  1020   723   742   un
  1021   724   725   un
  1022   724   730   un
  1023   724   738   un
  1024   724   742   un
  1025   725   729   un
  1026   726   727   un
  1027   726   729   un
  1028   726   740   un
  1029   727   728   un
  1030   727   747   un
  1031   729   739   un
  1032   730   734   un
  1033   731   732   un
  1034   731   734   un
  1035   731   736   un
  1036   732   733   un
  1037   732   748   un
  1038   734   735   un
  1039   736   737   un
  1040   736   746   un
  1041   740   741   un
  1042   740   745   un
  1043   743   744   un
  1044   743   749   un
  1045   745  1818   un
  1046   745  1819   un
  1047   746  1749   un
  1048   746  1750   un
  1049   747  1818   un
  1050   747  1830   un
  1051   748  1749   un
  1052   748  1759   un
  1053   749  3214   un
  1054   749  3215   un
  1055   750  3214   un
  1056   750  3265   un
  1057   751   757   un
  1058   752   756   un
  1059   753   754   un
  1060   753   756   un
  1061   753   767   un
  1062   754   755   un
  1063   754   772   un
  1064   756   766   un
  1065   757   758   un
  1066   757   766   un
  1067   758   762   un
  1068   759   760   un
  1069   759   762   un
  1070   759   764   un
  1071   760   761   un
  1072   760   770   un
  1073   762   763   un
  1074   764   765   un
  1075   764   769   un
  1076   767   768   un
  1077   767   771   un
  1078   769  1822   un
  1079   769  1823   un
  1080   770  1822   un
  1081   770  1832   un
  1082   771  3289   un
  1083   771  3290   un
  1084   772  3289   un
  1085   772  3326   un
  1086   773   774   un
  1087   773   775   un
  1088   773   790   un
  1089   773   793   un
  1090   773   794   un
  1091   775   779   un
  1092   776   777   un
  1093   776   779   un
  1094   776   798   un
  1095   777   778   un
  1096   777   805   un
  1097   779   797   un
  1098   780   784   un
  1099   781   782   un
  1100   781   784   un
  1101   781   795   un
  1102   782   783   un
  1103   782   803   un
  1104   784   794   un
  1105   785   789   un
  1106   786   787   un
  1107   786   789   un
  1108   786   791   un
  1109   787   788   un
  1110   787   802   un
  1111   789   790   un
  1112   791   792   un
  1113   791   800   un
  1114   795   796   un
  1115   795   801   un
  1116   798   799   un
  1117   798   804   un
  1118   800  1740   un
  1119   800  1741   un
  1120   801  1891   un
  1121   801  1892   un
  1122   802  1740   un
  1123   802  1754   un
  1124   803  1891   un
  1125   803  1903   un
  1126   804  2568   un
  1127   804  2582   un
  1128   805  2568   un
  1129   805  2569   un
  1130   806   807   un
  1131   806   808   un
  1132   806   855   un
  1133   806   858   un
  1134   806   859   un
  1135   807   813   un
  1136   807   836   un
  1137   808   812   un
  1138   809   810   un
  1139   809   812   un
  1140   809   869   un
  1141   810   811   un
  1142   810   889   un
  1143   812   868   un
  1144   813   814   un
  1145   813   818   un
  1146   813   820   un
  1147   813   851   un
  1148   813   858   un
  1149   813   868   un
  1150   813   871   un
  1151   814   819   un
  1152   815   816   un
  1153   815   819   un
  1154   815   866   un
  1155   816   817   un
  1156   816   893   un
  1157   818   825   un
  1158   818   847   un
  1159   819   865   un
  1160   820   824   un
  1161   821   822   un
  1162   821   824   un
  1163   821   863   un
  1164   822   823   un
  1165   822   894   un
  1166   824   862   un
  1167   825   826   un
  1168   825   831   un
  1169   825   858   un
  1170   825   862   un
  1171   826   830   un
  1172   827   828   un
  1173   827   830   un
  1174   827   860   un
  1175   828   829   un
  1176   828   884   un
  1177   830   859   un
  1178   831   835   un
  1179   832   833   un
  1180   832   835   un
  1181   832   849   un
  1182   833   834   un
  1183   833   885   un
  1184   835   848   un
  1185   836   837   un
  1186   836   842   un
  1187   836   851   un
  1188   836   865   un
  1189   837   841   un
  1190   838   839   un
  1191   838   841   un
  1192   838   853   un
  1193   839   840   un
  1194   839   886   un
  1195   841   852   un
  1196   842   846   un
  1197   843   844   un
  1198   843   846   un
  1199   843   856   un
  1200   844   845   un
  1201   844   883   un
  1202   846   855   un
  1203   847   848   un
  1204   847   851   un
  1205   847   852   un
  1206   847   876   un
  1207   849   850   un
  1208   849   882   un
  1209   853   854   un
  1210   853   879   un
  1211   856   857   un
  1212   856   880   un
  1213   860   861   un
  1214   860   881   un
  1215   863   864   un
  1216   863   892   un
  1217   866   867   un
  1218   866   891   un
  1219   869   870   un
  1220   869   888   un
  1221   871   875   un
  1222   872   873   un
  1223   872   875   un
  1224   872   877   un
  1225   873   874   un
  1226   873   887   un
  1227   875   876   un
  1228   877   878   un
  1229   877   890   un
  1230   879  1736   un
  1231   879  1737   un
  1232   880  1813   un
  1233   880  1814   un
  1234   881  1964   un
  1235   881  1965   un
  1236   882  1895   un
  1237   882  1896   un
  1238   883  1813   un
  1239   883  1827   un
  1240   884  1964   un
  1241   884  1976   un
  1242   885  1895   un
  1243   885  1905   un
  1244   886  1736   un
  1245   886  1762   un
  1246   887  2491   un
  1247   887  2492   un
  1248   888  2670   un
  1249   888  2684   un
  1250   889  2670   un
  1251   889  2671   un
  1252   890  2491   un
  1253   890  2572   un
  1254   891  3209   un
  1255   891  3210   un
  1256   892  3386   un
  1257   892  3387   un
  1258   893  3209   un
  1259   893  3259   un
  1260   894  3386   un
  1261   894  3437   un
  1262   895   896   un
  1263   895   900   un
  1264   895   902   un
  1265   895   923   un
  1266   895   933   un
  1267   896   901   un
  1268   897   898   un
  1269   897   901   un
  1270   897   931   un
  1271   898   899   un
  1272   898   949   un
  1273   900   907   un
  1274   900   919   un
  1275   901   930   un
  1276   902   906   un
  1277   903   904   un
  1278   903   906   un
  1279   903   928   un
  1280   904   905   un
  1281   904   950   un
  1282   906   927   un
  1283   907   908   un
  1284   907   927   un
  1285   908   912   un
  1286   909   910   un
  1287   909   912   un
  1288   909   921   un
  1289   910   911   un
  1290   910   943   un
  1291   912   920   un
  1292   913   914   un
  1293   913   923   un
  1294   913   930   un
  1295   914   918   un
  1296   915   916   un
  1297   915   918   un
  1298   915   925   un
  1299   916   917   un
  1300   916   944   un
  1301   918   924   un
  1302   919   920   un
  1303   919   923   un
  1304   919   924   un
  1305   919   938   un
  1306   921   922   un
  1307   921   942   un
  1308   925   926   un
  1309   925   941   un
  1310   928   929   un
  1311   928   948   un
  1312   931   932   un
  1313   931   947   un
  1314   933   937   un
  1315   934   935   un
  1316   934   937   un
  1317   934   939   un
  1318   935   936   un
  1319   935   945   un
  1320   937   938   un
  1321   939   940   un
  1322   939   946   un
  1323   941  1809   un
  1324   941  1810   un
  1325   942  1968   un
  1326   942  1969   un
  1327   943  1968   un
  1328   943  1978   un
  1329   944  1809   un
  1330   944  1835   un
  1331   945  2593   un
  1332   945  2594   un
  1333   946  2593   un
  1334   946  2674   un
  1335   947  3284   un
  1336   947  3285   un
  1337   948  3461   un
  1338   948  3462   un
  1339   949  3284   un
  1340   949  3320   un
  1341   950  3461   un
  1342   950  3498   un
  1343   951   952   un
  1344   951   953   un
  1345   951   963   un
  1346   953   957   un
  1347   954   955   un
  1348   954   957   un
  1349   954   967   un
  1350   955   956   un
  1351   955   972   un
  1352   957   966   un
  1353   958   962   un
  1354   959   960   un
  1355   959   962   un
  1356   959   964   un
  1357   960   961   un
  1358   960   970   un
  1359   962   963   un
  1360   964   965   un
  1361   964   969   un
  1362   967   968   un
  1363   967   971   un
  1364   969  1886   un
  1365   969  1887   un
  1366   970  1886   un
  1367   970  1900   un
  1368   971  2739   un
  1369   971  2753   un
  1370   972  2739   un
  1371   972  2740   un
  1372   973   974   un
  1373   973   975   un
  1374   973  1002   un
  1375   974   980   un
  1376   974   986   un
  1377   975   979   un
  1378   976   977   un
  1379   976   979   un
  1380   976  1009   un
  1381   977   978   un
  1382   977  1025   un
  1383   979  1008   un
  1384   980   981   un
  1385   980   998   un
  1386   980  1008   un
  1387   980  1011   un
  1388   981   985   un
  1389   982   983   un
  1390   982   985   un
  1391   982  1006   un
  1392   983   984   un
  1393   983  1028   un
  1394   985  1005   un
  1395   986   987   un
  1396   986   992   un
  1397   986   998   un
  1398   986  1005   un
  1399   987   991   un
  1400   988   989   un
  1401   988   991   un
  1402   988  1000   un
  1403   989   990   un
  1404   989  1022   un
  1405   991   999   un
  1406   992   996   un
  1407   993   994   un
  1408   993   996   un
  1409   993  1003   un
  1410   994   995   un
  1411   994  1021   un
  1412   996  1002   un
  1413   997   998   un
  1414   997   999   un
  1415   997  1016   un
  1416  1000  1001   un
  1417  1000  1019   un
  1418  1003  1004   un
  1419  1003  1020   un
  1420  1006  1007   un
  1421  1006  1027   un
  1422  1009  1010   un
  1423  1009  1024   un
  1424  1011  1015   un
  1425  1012  1013   un
  1426  1012  1015   un
  1427  1012  1017   un
  1428  1013  1014   un
  1429  1013  1023   un
  1430  1015  1016   un
  1431  1017  1018   un
  1432  1017  1026   un
  1433  1019  1882   un
  1434  1019  1883   un
  1435  1020  1959   un
  1436  1020  1960   un
  1437  1021  1959   un
  1438  1021  1973   un
  1439  1022  1882   un
  1440  1022  1908   un
  1441  1023  2695   un
  1442  1023  2696   un
  1443  1024  2804   un
  1444  1024  2818   un
  1445  1025  2804   un
  1446  1025  2805   un
  1447  1026  2695   un
  1448  1026  2743   un
  1449  1027  3381   un
  1450  1027  3382   un
  1451  1028  3381   un
  1452  1028  3431   un
  1453  1029  1030   un
  1454  1029  1042   un
  1455  1029  1049   un
  1456  1030  1034   un
  1457  1031  1032   un
  1458  1031  1034   un
  1459  1031  1047   un
  1460  1032  1033   un
  1461  1032  1062   un
  1462  1034  1046   un
  1463  1035  1036   un
  1464  1035  1042   un
  1465  1035  1046   un
  1466  1036  1040   un
  1467  1037  1038   un
  1468  1037  1040   un
  1469  1037  1044   un
  1470  1038  1039   un
  1471  1038  1058   un
  1472  1040  1043   un
  1473  1041  1042   un
  1474  1041  1043   un
  1475  1041  1054   un
  1476  1044  1045   un
  1477  1044  1057   un
  1478  1047  1048   un
  1479  1047  1061   un
  1480  1049  1053   un
  1481  1050  1051   un
  1482  1050  1053   un
  1483  1050  1055   un
  1484  1051  1052   un
  1485  1051  1059   un
  1486  1053  1054   un
  1487  1055  1056   un
  1488  1055  1060   un
  1489  1057  1955   un
  1490  1057  1956   un
  1491  1058  1955   un
  1492  1058  1981   un
  1493  1059  2760   un
  1494  1059  2761   un
  1495  1060  2760   un
  1496  1060  2808   un
  1497  1061  3456   un
  1498  1061  3457   un
  1499  1062  3456   un
  1500  1062  3492   un
  1501  1063  1067   un
  1502  1064  1065   un
  1503  1064  1067   un
  1504  1064  1095   un
  1505  1065  1066   un
  1506  1065  1103   un
  1507  1067  1094   un
  1508  1068  1069   un
  1509  1069  1070   un
  1510  1069  1074   un
  1511  1069  1076   un
  1512  1069  1081   un
  1513  1069  1082   un
  1514  1069  1089   un
  1515  1069  1094   un
  1516  1070  1075   un
  1517  1071  1072   un
  1518  1071  1075   un
  1519  1071  1084   un
  1520  1072  1073   un
  1521  1072  1107   un
  1522  1075  1083   un
  1523  1076  1080   un
  1524  1077  1078   un
  1525  1077  1080   un
  1526  1077  1087   un
  1527  1078  1079   un
  1528  1078  1106   un
  1529  1080  1086   un
  1530  1084  1085   un
  1531  1084  1104   un
  1532  1087  1088   un
  1533  1087  1105   un
  1534  1089  1093   un
  1535  1090  1091   un
  1536  1090  1093   un
  1537  1090  1098   un
  1538  1091  1092   un
  1539  1091  1100   un
  1540  1093  1097   un
  1541  1095  1096   un
  1542  1095  1101   un
  1543  1098  1099   un
  1544  1098  1102   un
  1545  1100  2830   un
  1546  1100  2831   un
  1547  1101  2931   un
  1548  1101  2935   un
  1549  1102  2830   un
  1550  1102  2851   un
  1551  1103  2931   un
  1552  1103  2932   un
  1553  1104  2104   un
  1554  1104  2105   un
  1555  1105  2014   un
  1556  1105  2015   un
  1557  1106  2014   un
  1558  1106  2039   un
  1559  1107  2104   un
  1560  1107  2156   un
  1561  1108  1112   un
  1562  1109  1110   un
  1563  1109  1112   un
  1564  1109  1140   un
  1565  1110  1111   un
  1566  1110  1148   un
  1567  1112  1139   un
  1568  1113  1114   un
  1569  1114  1115   un
  1570  1114  1119   un
  1571  1114  1121   un
  1572  1114  1126   un
  1573  1114  1127   un
  1574  1114  1134   un
  1575  1114  1139   un
  1576  1115  1120   un
  1577  1116  1117   un
  1578  1116  1120   un
  1579  1116  1129   un
  1580  1117  1118   un
  1581  1117  1152   un
  1582  1120  1128   un
  1583  1121  1125   un
  1584  1122  1123   un
  1585  1122  1125   un
  1586  1122  1132   un
  1587  1123  1124   un
  1588  1123  1151   un
  1589  1125  1131   un
  1590  1129  1130   un
  1591  1129  1149   un
  1592  1132  1133   un
  1593  1132  1150   un
  1594  1134  1138   un
  1595  1135  1136   un
  1596  1135  1138   un
  1597  1135  1143   un
  1598  1136  1137   un
  1599  1136  1145   un
  1600  1138  1142   un
  1601  1140  1141   un
  1602  1140  1146   un
  1603  1143  1144   un
  1604  1143  1147   un
  1605  1145  2859   un
  1606  1145  2860   un
  1607  1146  2988   un
  1608  1146  2992   un
  1609  1147  2859   un
  1610  1147  2929   un
  1611  1148  2988   un
  1612  1148  2989   un
  1613  1149  2206   un
  1614  1149  2207   un
  1615  1150  2051   un
  1616  1150  2052   un
  1617  1151  2051   un
  1618  1151  2076   un
  1619  1152  2206   un
  1620  1152  2258   un
  1621  1153  1157   un
  1622  1154  1155   un
  1623  1154  1157   un
  1624  1154  1185   un
  1625  1155  1156   un
  1626  1155  1193   un
  1627  1157  1184   un
  1628  1158  1159   un
  1629  1159  1160   un
  1630  1159  1164   un
  1631  1159  1166   un
  1632  1159  1171   un
  1633  1159  1172   un
  1634  1159  1179   un
  1635  1159  1184   un
  1636  1160  1165   un
  1637  1161  1162   un
  1638  1161  1165   un
  1639  1161  1174   un
  1640  1162  1163   un
  1641  1162  1197   un
  1642  1165  1173   un
  1643  1166  1170   un
  1644  1167  1168   un
  1645  1167  1170   un
  1646  1167  1177   un
  1647  1168  1169   un
  1648  1168  1196   un
  1649  1170  1176   un
  1650  1174  1175   un
  1651  1174  1194   un
  1652  1177  1178   un
  1653  1177  1195   un
  1654  1179  1183   un
  1655  1180  1181   un
  1656  1180  1183   un
  1657  1180  1188   un
  1658  1181  1182   un
  1659  1181  1190   un
  1660  1183  1187   un
  1661  1185  1186   un
  1662  1185  1191   un
  1663  1188  1189   un
  1664  1188  1192   un
  1665  1190  3002   un
  1666  1190  3003   un
  1667  1191  3103   un
  1668  1191  3107   un
  1669  1192  3002   un
  1670  1192  3023   un
  1671  1193  3103   un
  1672  1193  3104   un
  1673  1194  2303   un
  1674  1194  2304   un
  1675  1195  2109   un
  1676  1195  2110   un
  1677  1196  2109   un
  1678  1196  2154   un
  1679  1197  2303   un
  1680  1197  2327   un
  1681  1198  1202   un
  1682  1199  1200   un
  1683  1199  1202   un
  1684  1199  1230   un
  1685  1200  1201   un
  1686  1200  1238   un
  1687  1202  1229   un
  1688  1203  1204   un
  1689  1204  1205   un
  1690  1204  1209   un
  1691  1204  1211   un
  1692  1204  1216   un
  1693  1204  1217   un
  1694  1204  1224   un
  1695  1204  1229   un
  1696  1205  1210   un
  1697  1206  1207   un
  1698  1206  1210   un
  1699  1206  1219   un
  1700  1207  1208   un
  1701  1207  1242   un
  1702  1210  1218   un
  1703  1211  1215   un
  1704  1212  1213   un
  1705  1212  1215   un
  1706  1212  1222   un
  1707  1213  1214   un
  1708  1213  1241   un
  1709  1215  1221   un
  1710  1219  1220   un
  1711  1219  1239   un
  1712  1222  1223   un
  1713  1222  1240   un
  1714  1224  1228   un
  1715  1225  1226   un
  1716  1225  1228   un
  1717  1225  1233   un
  1718  1226  1227   un
  1719  1226  1235   un
  1720  1228  1232   un
  1721  1230  1231   un
  1722  1230  1236   un
  1723  1233  1234   un
  1724  1233  1237   un
  1725  1235  3031   un
  1726  1235  3032   un
  1727  1236  3160   un
  1728  1236  3164   un
  1729  1237  3031   un
  1730  1237  3101   un
  1731  1238  3160   un
  1732  1238  3161   un
  1733  1239  2368   un
  1734  1239  2369   un
  1735  1240  2211   un
  1736  1240  2212   un
  1737  1241  2211   un
  1738  1241  2256   un
  1739  1242  2368   un
  1740  1242  2392   un
  1741  1243  1244   un
  1742  1243  1248   un
  1743  1243  1250   un
  1744  1243  1254   un
  1745  1243  1305   un
  1746  1243  1307   un
  1747  1243  1308   un
  1748  1243  1310   un
  1749  1244  1249   un
  1750  1245  1246   un
  1751  1245  1249   un
  1752  1245  1329   un
  1753  1246  1247   un
  1754  1246  1352   un
  1755  1248  1268   un
  1756  1248  1289   un
  1757  1249  1328   un
  1758  1250  1255   un
  1759  1251  1252   un
  1760  1251  1255   un
  1761  1251  1332   un
  1762  1252  1253   un
  1763  1252  1349   un
  1764  1254  1256   un
  1765  1254  1280   un
  1766  1255  1331   un
  1767  1256  1257   un
  1768  1256  1261   un
  1769  1256  1263   un
  1770  1256  1304   un
  1771  1256  1310   un
  1772  1256  1323   un
  1773  1256  1328   un
  1774  1257  1262   un
  1775  1258  1259   un
  1776  1258  1262   un
  1777  1258  1312   un
  1778  1259  1260   un
  1779  1259  1359   un
  1780  1261  1289   un
  1781  1261  1298   un
  1782  1262  1311   un
  1783  1263  1267   un
  1784  1264  1265   un
  1785  1264  1267   un
  1786  1264  1321   un
  1787  1265  1266   un
  1788  1265  1358   un
  1789  1267  1320   un
  1790  1268  1269   un
  1791  1268  1273   un
  1792  1268  1275   un
  1793  1268  1301   un
  1794  1268  1307   un
  1795  1268  1331   un
  1796  1268  1334   un
  1797  1269  1274   un
  1798  1270  1271   un
  1799  1270  1274   un
  1800  1270  1318   un
  1801  1271  1272   un
  1802  1271  1357   un
  1803  1273  1280   un
  1804  1273  1298   un
  1805  1274  1317   un
  1806  1275  1279   un
  1807  1276  1277   un
  1808  1276  1279   un
  1809  1276  1315   un
  1810  1277  1278   un
  1811  1277  1360   un
  1812  1279  1314   un
  1813  1280  1281   un
  1814  1280  1285   un
  1815  1280  1304   un
  1816  1280  1307   un
  1817  1280  1311   un
  1818  1280  1314   un
  1819  1281  1284   un
  1820  1282  1284   un
  1821  1284  1308   un
  1822  1285  1288   un
  1823  1286  1288   un
  1824  1288  1299   un
  1825  1289  1290   un
  1826  1289  1294   un
  1827  1289  1301   un
  1828  1289  1310   un
  1829  1289  1317   un
  1830  1289  1320   un
  1831  1290  1293   un
  1832  1291  1293   un
  1833  1293  1302   un
  1834  1294  1297   un
  1835  1295  1297   un
  1836  1297  1305   un
  1837  1298  1299   un
  1838  1298  1301   un
  1839  1298  1302   un
  1840  1298  1304   un
  1841  1298  1339   un
  1842  1298  1342   un
  1843  1312  1313   un
  1844  1312  1355   un
  1845  1315  1316   un
  1846  1315  1354   un
  1847  1318  1319   un
  1848  1318  1353   un
  1849  1321  1322   un
  1850  1321  1356   un
  1851  1323  1327   un
  1852  1324  1325   un
  1853  1324  1327   un
  1854  1324  1343   un
  1855  1325  1326   un
  1856  1325  1346   un
  1857  1327  1342   un
  1858  1329  1330   un
  1859  1329  1347   un
  1860  1332  1333   un
  1861  1332  1348   un
  1862  1334  1338   un
  1863  1335  1336   un
  1864  1335  1338   un
  1865  1335  1340   un
  1866  1336  1337   un
  1867  1336  1345   un
  1868  1338  1339   un
  1869  1340  1341   un
  1870  1340  1350   un
  1871  1343  1344   un
  1872  1343  1351   un
  1873  1345  2825   un
  1874  1345  2826   un
  1875  1346  3174   un
  1876  1346  3175   un
  1877  1347  3275   un
  1878  1347  3279   un
  1879  1348  2923   un
  1880  1348  2937   un
  1881  1349  2923   un
  1882  1349  2924   un
  1883  1350  2825   un
  1884  1350  2849   un
  1885  1351  3174   un
  1886  1351  3195   un
  1887  1352  3275   un
  1888  1352  3276   un
  1889  1353  2009   un
  1890  1353  2010   un
  1891  1354  2099   un
  1892  1354  2100   un
  1893  1355  2512   un
  1894  1355  2513   un
  1895  1356  2422   un
  1896  1356  2423   un
  1897  1357  2009   un
  1898  1357  2037   un
  1899  1358  2422   un
  1900  1358  2447   un
  1901  1359  2512   un
  1902  1359  2564   un
  1903  1360  2099   un
  1904  1360  2158   un
  1905  1361  1362   un
  1906  1361  1366   un
  1907  1361  1368   un
  1908  1361  1372   un
  1909  1361  1423   un
  1910  1361  1425   un
  1911  1361  1426   un
  1912  1361  1428   un
  1913  1362  1367   un
  1914  1363  1364   un
  1915  1363  1367   un
  1916  1363  1447   un
  1917  1364  1365   un
  1918  1364  1470   un
  1919  1366  1386   un
  1920  1366  1407   un
  1921  1367  1446   un
  1922  1368  1373   un
  1923  1369  1370   un
  1924  1369  1373   un
  1925  1369  1450   un
  1926  1370  1371   un
  1927  1370  1467   un
  1928  1372  1374   un
  1929  1372  1398   un
  1930  1373  1449   un
  1931  1374  1375   un
  1932  1374  1379   un
  1933  1374  1381   un
  1934  1374  1422   un
  1935  1374  1428   un
  1936  1374  1441   un
  1937  1374  1446   un
  1938  1375  1380   un
  1939  1376  1377   un
  1940  1376  1380   un
  1941  1376  1430   un
  1942  1377  1378   un
  1943  1377  1477   un
  1944  1379  1407   un
  1945  1379  1416   un
  1946  1380  1429   un
  1947  1381  1385   un
  1948  1382  1383   un
  1949  1382  1385   un
  1950  1382  1439   un
  1951  1383  1384   un
  1952  1383  1476   un
  1953  1385  1438   un
  1954  1386  1387   un
  1955  1386  1391   un
  1956  1386  1393   un
  1957  1386  1419   un
  1958  1386  1425   un
  1959  1386  1449   un
  1960  1386  1452   un
  1961  1387  1392   un
  1962  1388  1389   un
  1963  1388  1392   un
  1964  1388  1436   un
  1965  1389  1390   un
  1966  1389  1475   un
  1967  1391  1398   un
  1968  1391  1416   un
  1969  1392  1435   un
  1970  1393  1397   un
  1971  1394  1395   un
  1972  1394  1397   un
  1973  1394  1433   un
  1974  1395  1396   un
  1975  1395  1478   un
  1976  1397  1432   un
  1977  1398  1399   un
  1978  1398  1403   un
  1979  1398  1422   un
  1980  1398  1425   un
  1981  1398  1429   un
  1982  1398  1432   un
  1983  1399  1402   un
  1984  1400  1402   un
  1985  1402  1426   un
  1986  1403  1406   un
  1987  1404  1406   un
  1988  1406  1417   un
  1989  1407  1408   un
  1990  1407  1412   un
  1991  1407  1419   un
  1992  1407  1428   un
  1993  1407  1435   un
  1994  1407  1438   un
  1995  1408  1411   un
  1996  1409  1411   un
  1997  1411  1420   un
  1998  1412  1415   un
  1999  1413  1415   un
  2000  1415  1423   un
  2001  1416  1417   un
  2002  1416  1419   un
  2003  1416  1420   un
  2004  1416  1422   un
  2005  1416  1457   un
  2006  1416  1460   un
  2007  1430  1431   un
  2008  1430  1473   un
  2009  1433  1434   un
  2010  1433  1472   un
  2011  1436  1437   un
  2012  1436  1471   un
  2013  1439  1440   un
  2014  1439  1474   un
  2015  1441  1445   un
  2016  1442  1443   un
  2017  1442  1445   un
  2018  1442  1461   un
  2019  1443  1444   un
  2020  1443  1464   un
  2021  1445  1460   un
  2022  1447  1448   un
  2023  1447  1465   un
  2024  1450  1451   un
  2025  1450  1466   un
  2026  1452  1456   un
  2027  1453  1454   un
  2028  1453  1456   un
  2029  1453  1458   un
  2030  1454  1455   un
  2031  1454  1463   un
  2032  1456  1457   un
  2033  1458  1459   un
  2034  1458  1468   un
  2035  1461  1462   un
  2036  1461  1469   un
  2037  1463  2854   un
  2038  1463  2855   un
  2039  1464  3203   un
  2040  1464  3204   un
  2041  1465  3332   un
  2042  1465  3336   un
  2043  1466  2984   un
  2044  1466  2994   un
  2045  1467  2984   un
  2046  1467  2985   un
  2047  1468  2854   un
  2048  1468  2927   un
  2049  1469  3203   un
  2050  1469  3273   un
  2051  1470  3332   un
  2052  1470  3333   un
  2053  1471  2046   un
  2054  1471  2047   un
  2055  1472  2201   un
  2056  1472  2202   un
  2057  1473  2614   un
  2058  1473  2615   un
  2059  1474  2459   un
  2060  1474  2460   un
  2061  1475  2046   un
  2062  1475  2074   un
  2063  1476  2459   un
  2064  1476  2484   un
  2065  1477  2614   un
  2066  1477  2666   un
  2067  1478  2201   un
  2068  1478  2260   un
  2069  1479  1480   un
  2070  1479  1484   un
  2071  1479  1486   un
  2072  1479  1490   un
  2073  1479  1541   un
  2074  1479  1543   un
  2075  1479  1544   un
  2076  1479  1546   un
  2077  1480  1485   un
  2078  1481  1482   un
  2079  1481  1485   un
  2080  1481  1565   un
  2081  1482  1483   un
  2082  1482  1588   un
  2083  1484  1504   un
  2084  1484  1525   un
  2085  1485  1564   un
  2086  1486  1491   un
  2087  1487  1488   un
  2088  1487  1491   un
  2089  1487  1568   un
  2090  1488  1489   un
  2091  1488  1585   un
  2092  1490  1492   un
  2093  1490  1516   un
  2094  1491  1567   un
  2095  1492  1493   un
  2096  1492  1497   un
  2097  1492  1499   un
  2098  1492  1540   un
  2099  1492  1546   un
  2100  1492  1559   un
  2101  1492  1564   un
  2102  1493  1498   un
  2103  1494  1495   un
  2104  1494  1498   un
  2105  1494  1548   un
  2106  1495  1496   un
  2107  1495  1595   un
  2108  1497  1525   un
  2109  1497  1534   un
  2110  1498  1547   un
  2111  1499  1503   un
  2112  1500  1501   un
  2113  1500  1503   un
  2114  1500  1557   un
  2115  1501  1502   un
  2116  1501  1594   un
  2117  1503  1556   un
  2118  1504  1505   un
  2119  1504  1509   un
  2120  1504  1511   un
  2121  1504  1537   un
  2122  1504  1543   un
  2123  1504  1567   un
  2124  1504  1570   un
  2125  1505  1510   un
  2126  1506  1507   un
  2127  1506  1510   un
  2128  1506  1554   un
  2129  1507  1508   un
  2130  1507  1593   un
  2131  1509  1516   un
  2132  1509  1534   un
  2133  1510  1553   un
  2134  1511  1515   un
  2135  1512  1513   un
  2136  1512  1515   un
  2137  1512  1551   un
  2138  1513  1514   un
  2139  1513  1596   un
  2140  1515  1550   un
  2141  1516  1517   un
  2142  1516  1521   un
  2143  1516  1540   un
  2144  1516  1543   un
  2145  1516  1547   un
  2146  1516  1550   un
  2147  1517  1520   un
  2148  1518  1520   un
  2149  1520  1544   un
  2150  1521  1524   un
  2151  1522  1524   un
  2152  1524  1535   un
  2153  1525  1526   un
  2154  1525  1530   un
  2155  1525  1537   un
  2156  1525  1546   un
  2157  1525  1553   un
  2158  1525  1556   un
  2159  1526  1529   un
  2160  1527  1529   un
  2161  1529  1538   un
  2162  1530  1533   un
  2163  1531  1533   un
  2164  1533  1541   un
  2165  1534  1535   un
  2166  1534  1537   un
  2167  1534  1538   un
  2168  1534  1540   un
  2169  1534  1575   un
  2170  1534  1578   un
  2171  1548  1549   un
  2172  1548  1591   un
  2173  1551  1552   un
  2174  1551  1590   un
  2175  1554  1555   un
  2176  1554  1589   un
  2177  1557  1558   un
  2178  1557  1592   un
  2179  1559  1563   un
  2180  1560  1561   un
  2181  1560  1563   un
  2182  1560  1579   un
  2183  1561  1562   un
  2184  1561  1582   un
  2185  1563  1578   un
  2186  1565  1566   un
  2187  1565  1583   un
  2188  1568  1569   un
  2189  1568  1584   un
  2190  1570  1574   un
  2191  1571  1572   un
  2192  1571  1574   un
  2193  1571  1576   un
  2194  1572  1573   un
  2195  1572  1581   un
  2196  1574  1575   un
  2197  1576  1577   un
  2198  1576  1586   un
  2199  1579  1580   un
  2200  1579  1587   un
  2201  1581  2997   un
  2202  1581  2998   un
  2203  1582  3346   un
  2204  1582  3347   un
  2205  1583  3447   un
  2206  1583  3451   un
  2207  1584  3095   un
  2208  1584  3109   un
  2209  1585  3095   un
  2210  1585  3096   un
  2211  1586  2997   un
  2212  1586  3021   un
  2213  1587  3346   un
  2214  1587  3367   un
  2215  1588  3447   un
  2216  1588  3448   un
  2217  1589  2094   un
  2218  1589  2095   un
  2219  1590  2298   un
  2220  1590  2299   un
  2221  1591  2711   un
  2222  1591  2712   un
  2223  1592  2517   un
  2224  1592  2518   un
  2225  1593  2094   un
  2226  1593  2152   un
  2227  1594  2517   un
  2228  1594  2562   un
  2229  1595  2711   un
  2230  1595  2735   un
  2231  1596  2298   un
  2232  1596  2329   un
  2233  1597  1598   un
  2234  1597  1602   un
  2235  1597  1604   un
  2236  1597  1608   un
  2237  1597  1659   un
  2238  1597  1661   un
  2239  1597  1662   un
  2240  1597  1664   un
  2241  1598  1603   un
  2242  1599  1600   un
  2243  1599  1603   un
  2244  1599  1683   un
  2245  1600  1601   un
  2246  1600  1706   un
  2247  1602  1622   un
  2248  1602  1643   un
  2249  1603  1682   un
  2250  1604  1609   un
  2251  1605  1606   un
  2252  1605  1609   un
  2253  1605  1686   un
  2254  1606  1607   un
  2255  1606  1703   un
  2256  1608  1610   un
  2257  1608  1634   un
  2258  1609  1685   un
  2259  1610  1611   un
  2260  1610  1615   un
  2261  1610  1617   un
  2262  1610  1658   un
  2263  1610  1664   un
  2264  1610  1677   un
  2265  1610  1682   un
  2266  1611  1616   un
  2267  1612  1613   un
  2268  1612  1616   un
  2269  1612  1666   un
  2270  1613  1614   un
  2271  1613  1713   un
  2272  1615  1643   un
  2273  1615  1652   un
  2274  1616  1665   un
  2275  1617  1621   un
  2276  1618  1619   un
  2277  1618  1621   un
  2278  1618  1675   un
  2279  1619  1620   un
  2280  1619  1712   un
  2281  1621  1674   un
  2282  1622  1623   un
  2283  1622  1627   un
  2284  1622  1629   un
  2285  1622  1655   un
  2286  1622  1661   un
  2287  1622  1685   un
  2288  1622  1688   un
  2289  1623  1628   un
  2290  1624  1625   un
  2291  1624  1628   un
  2292  1624  1672   un
  2293  1625  1626   un
  2294  1625  1711   un
  2295  1627  1634   un
  2296  1627  1652   un
  2297  1628  1671   un
  2298  1629  1633   un
  2299  1630  1631   un
  2300  1630  1633   un
  2301  1630  1669   un
  2302  1631  1632   un
  2303  1631  1714   un
  2304  1633  1668   un
  2305  1634  1635   un
  2306  1634  1639   un
  2307  1634  1658   un
  2308  1634  1661   un
  2309  1634  1665   un
  2310  1634  1668   un
  2311  1635  1638   un
  2312  1636  1638   un
  2313  1638  1662   un
  2314  1639  1642   un
  2315  1640  1642   un
  2316  1642  1653   un
  2317  1643  1644   un
  2318  1643  1648   un
  2319  1643  1655   un
  2320  1643  1664   un
  2321  1643  1671   un
  2322  1643  1674   un
  2323  1644  1647   un
  2324  1645  1647   un
  2325  1647  1656   un
  2326  1648  1651   un
  2327  1649  1651   un
  2328  1651  1659   un
  2329  1652  1653   un
  2330  1652  1655   un
  2331  1652  1656   un
  2332  1652  1658   un
  2333  1652  1693   un
  2334  1652  1696   un
  2335  1666  1667   un
  2336  1666  1709   un
  2337  1669  1670   un
  2338  1669  1708   un
  2339  1672  1673   un
  2340  1672  1707   un
  2341  1675  1676   un
  2342  1675  1710   un
  2343  1677  1681   un
  2344  1678  1679   un
  2345  1678  1681   un
  2346  1678  1697   un
  2347  1679  1680   un
  2348  1679  1700   un
  2349  1681  1696   un
  2350  1683  1684   un
  2351  1683  1701   un
  2352  1686  1687   un
  2353  1686  1702   un
  2354  1688  1692   un
  2355  1689  1690   un
  2356  1689  1692   un
  2357  1689  1694   un
  2358  1690  1691   un
  2359  1690  1699   un
  2360  1692  1693   un
  2361  1694  1695   un
  2362  1694  1704   un
  2363  1697  1698   un
  2364  1697  1705   un
  2365  1699  3026   un
  2366  1699  3027   un
  2367  1700  3375   un
  2368  1700  3376   un
  2369  1701  3504   un
  2370  1701  3508   un
  2371  1702  3156   un
  2372  1702  3166   un
  2373  1703  3156   un
  2374  1703  3157   un
  2375  1704  3026   un
  2376  1704  3099   un
  2377  1705  3375   un
  2378  1705  3445   un
  2379  1706  3504   un
  2380  1706  3505   un
  2381  1707  2196   un
  2382  1707  2197   un
  2383  1708  2363   un
  2384  1708  2364   un
  2385  1709  2776   un
  2386  1709  2777   un
  2387  1710  2619   un
  2388  1710  2620   un
  2389  1711  2196   un
  2390  1711  2254   un
  2391  1712  2619   un
  2392  1712  2664   un
  2393  1713  2776   un
  2394  1713  2800   un
  2395  1714  2363   un
  2396  1714  2394   un
  2397  1715  1716   un
  2398  1715  1717   un
  2399  1715  1758   un
  2400  1715  1760   un
  2401  1715  1761   un
  2402  1716  1722   un
  2403  1716  1743   un
  2404  1717  1721   un
  2405  1718  1719   un
  2406  1718  1721   un
  2407  1718  1770   un
  2408  1719  1720   un
  2409  1719  1782   un
  2410  1721  1769   un
  2411  1722  1723   un
  2412  1722  1727   un
  2413  1722  1729   un
  2414  1722  1755   un
  2415  1722  1760   un
  2416  1722  1769   un
  2417  1722  1772   un
  2418  1723  1728   un
  2419  1724  1725   un
  2420  1724  1728   un
  2421  1724  1767   un
  2422  1725  1726   un
  2423  1725  1786   un
  2424  1727  1734   un
  2425  1727  1752   un
  2426  1728  1766   un
  2427  1729  1733   un
  2428  1730  1731   un
  2429  1730  1733   un
  2430  1730  1764   un
  2431  1731  1732   un
  2432  1731  1787   un
  2433  1733  1763   un
  2434  1734  1735   un
  2435  1734  1739   un
  2436  1734  1760   un
  2437  1734  1763   un
  2438  1735  1738   un
  2439  1736  1738   un
  2440  1738  1761   un
  2441  1739  1742   un
  2442  1740  1742   un
  2443  1742  1753   un
  2444  1743  1744   un
  2445  1743  1748   un
  2446  1743  1755   un
  2447  1743  1766   un
  2448  1744  1747   un
  2449  1745  1747   un
  2450  1747  1756   un
  2451  1748  1751   un
  2452  1749  1751   un
  2453  1751  1758   un
  2454  1752  1753   un
  2455  1752  1755   un
  2456  1752  1756   un
  2457  1752  1777   un
  2458  1764  1765   un
  2459  1764  1785   un
  2460  1767  1768   un
  2461  1767  1784   un
  2462  1770  1771   un
  2463  1770  1781   un
  2464  1772  1776   un
  2465  1773  1774   un
  2466  1773  1776   un
  2467  1773  1778   un
  2468  1774  1775   un
  2469  1774  1780   un
  2470  1776  1777   un
  2471  1778  1779   un
  2472  1778  1783   un
  2473  1780  3169   un
  2474  1780  3170   un
  2475  1781  3267   un
  2476  1781  3281   un
  2477  1782  3267   un
  2478  1782  3268   un
  2479  1783  3169   un
  2480  1783  3193   un
  2481  1784  2417   un
  2482  1784  2418   un
  2483  1785  2507   un
  2484  1785  2508   un
  2485  1786  2417   un
  2486  1786  2445   un
  2487  1787  2507   un
  2488  1787  2566   un
  2489  1788  1789   un
  2490  1788  1790   un
  2491  1788  1831   un
  2492  1788  1833   un
  2493  1788  1834   un
  2494  1789  1795   un
  2495  1789  1816   un
  2496  1790  1794   un
  2497  1791  1792   un
  2498  1791  1794   un
  2499  1791  1843   un
  2500  1792  1793   un
  2501  1792  1855   un
  2502  1794  1842   un
  2503  1795  1796   un
  2504  1795  1800   un
  2505  1795  1802   un
  2506  1795  1828   un
  2507  1795  1833   un
  2508  1795  1842   un
  2509  1795  1845   un
  2510  1796  1801   un
  2511  1797  1798   un
  2512  1797  1801   un
  2513  1797  1840   un
  2514  1798  1799   un
  2515  1798  1859   un
  2516  1800  1807   un
  2517  1800  1825   un
  2518  1801  1839   un
  2519  1802  1806   un
  2520  1803  1804   un
  2521  1803  1806   un
  2522  1803  1837   un
  2523  1804  1805   un
  2524  1804  1860   un
  2525  1806  1836   un
  2526  1807  1808   un
  2527  1807  1812   un
  2528  1807  1833   un
  2529  1807  1836   un
  2530  1808  1811   un
  2531  1809  1811   un
  2532  1811  1834   un
  2533  1812  1815   un
  2534  1813  1815   un
  2535  1815  1826   un
  2536  1816  1817   un
  2537  1816  1821   un
  2538  1816  1828   un
  2539  1816  1839   un
  2540  1817  1820   un
  2541  1818  1820   un
  2542  1820  1829   un
  2543  1821  1824   un
  2544  1822  1824   un
  2545  1824  1831   un
  2546  1825  1826   un
  2547  1825  1828   un
  2548  1825  1829   un
  2549  1825  1850   un
  2550  1837  1838   un
  2551  1837  1858   un
  2552  1840  1841   un
  2553  1840  1857   un
  2554  1843  1844   un
  2555  1843  1854   un
  2556  1845  1849   un
  2557  1846  1847   un
  2558  1846  1849   un
  2559  1846  1851   un
  2560  1847  1848   un
  2561  1847  1853   un
  2562  1849  1850   un
  2563  1851  1852   un
  2564  1851  1856   un
  2565  1853  3198   un
  2566  1853  3199   un
  2567  1854  3328   un
  2568  1854  3338   un
  2569  1855  3328   un
  2570  1855  3329   un
  2571  1856  3198   un
  2572  1856  3271   un
  2573  1857  2454   un
  2574  1857  2455   un
  2575  1858  2609   un
  2576  1858  2610   un
  2577  1859  2454   un
  2578  1859  2482   un
  2579  1860  2609   un
  2580  1860  2668   un
  2581  1861  1862   un
  2582  1861  1863   un
  2583  1861  1904   un
  2584  1861  1906   un
  2585  1861  1907   un
  2586  1862  1868   un
  2587  1862  1889   un
  2588  1863  1867   un
  2589  1864  1865   un
  2590  1864  1867   un
  2591  1864  1916   un
  2592  1865  1866   un
  2593  1865  1928   un
  2594  1867  1915   un
  2595  1868  1869   un
  2596  1868  1873   un
  2597  1868  1875   un
  2598  1868  1901   un
  2599  1868  1906   un
  2600  1868  1915   un
  2601  1868  1918   un
  2602  1869  1874   un
  2603  1870  1871   un
  2604  1870  1874   un
  2605  1870  1913   un
  2606  1871  1872   un
  2607  1871  1932   un
  2608  1873  1880   un
  2609  1873  1898   un
  2610  1874  1912   un
  2611  1875  1879   un
  2612  1876  1877   un
  2613  1876  1879   un
  2614  1876  1910   un
  2615  1877  1878   un
  2616  1877  1933   un
  2617  1879  1909   un
  2618  1880  1881   un
  2619  1880  1885   un
  2620  1880  1906   un
  2621  1880  1909   un
  2622  1881  1884   un
  2623  1882  1884   un
  2624  1884  1907   un
  2625  1885  1888   un
  2626  1886  1888   un
  2627  1888  1899   un
  2628  1889  1890   un
  2629  1889  1894   un
  2630  1889  1901   un
  2631  1889  1912   un
  2632  1890  1893   un
  2633  1891  1893   un
  2634  1893  1902   un
  2635  1894  1897   un
  2636  1895  1897   un
  2637  1897  1904   un
  2638  1898  1899   un
  2639  1898  1901   un
  2640  1898  1902   un
  2641  1898  1923   un
  2642  1910  1911   un
  2643  1910  1931   un
  2644  1913  1914   un
  2645  1913  1930   un
  2646  1916  1917   un
  2647  1916  1927   un
  2648  1918  1922   un
  2649  1919  1920   un
  2650  1919  1922   un
  2651  1919  1924   un
  2652  1920  1921   un
  2653  1920  1926   un
  2654  1922  1923   un
  2655  1924  1925   un
  2656  1924  1929   un
  2657  1926  3341   un
  2658  1926  3342   un
  2659  1927  3439   un
  2660  1927  3453   un
  2661  1928  3439   un
  2662  1928  3440   un
  2663  1929  3341   un
  2664  1929  3365   un
  2665  1930  2502   un
  2666  1930  2503   un
  2667  1931  2706   un
  2668  1931  2707   un
  2669  1932  2502   un
  2670  1932  2560   un
  2671  1933  2706   un
  2672  1933  2737   un
  2673  1934  1935   un
  2674  1934  1936   un
  2675  1934  1977   un
  2676  1934  1979   un
  2677  1934  1980   un
  2678  1935  1941   un
  2679  1935  1962   un
  2680  1936  1940   un
  2681  1937  1938   un
  2682  1937  1940   un
  2683  1937  1989   un
  2684  1938  1939   un
  2685  1938  2001   un
  2686  1940  1988   un
  2687  1941  1942   un
  2688  1941  1946   un
  2689  1941  1948   un
  2690  1941  1974   un
  2691  1941  1979   un
  2692  1941  1988   un
  2693  1941  1991   un
  2694  1942  1947   un
  2695  1943  1944   un
  2696  1943  1947   un
  2697  1943  1986   un
  2698  1944  1945   un
  2699  1944  2005   un
  2700  1946  1953   un
  2701  1946  1971   un
  2702  1947  1985   un
  2703  1948  1952   un
  2704  1949  1950   un
  2705  1949  1952   un
  2706  1949  1983   un
  2707  1950  1951   un
  2708  1950  2006   un
  2709  1952  1982   un
  2710  1953  1954   un
  2711  1953  1958   un
  2712  1953  1979   un
  2713  1953  1982   un
  2714  1954  1957   un
  2715  1955  1957   un
  2716  1957  1980   un
  2717  1958  1961   un
  2718  1959  1961   un
  2719  1961  1972   un
  2720  1962  1963   un
  2721  1962  1967   un
  2722  1962  1974   un
  2723  1962  1985   un
  2724  1963  1966   un
  2725  1964  1966   un
  2726  1966  1975   un
  2727  1967  1970   un
  2728  1968  1970   un
  2729  1970  1977   un
  2730  1971  1972   un
  2731  1971  1974   un
  2732  1971  1975   un
  2733  1971  1996   un
  2734  1983  1984   un
  2735  1983  2004   un
  2736  1986  1987   un
  2737  1986  2003   un
  2738  1989  1990   un
  2739  1989  2000   un
  2740  1991  1995   un
  2741  1992  1993   un
  2742  1992  1995   un
  2743  1992  1997   un
  2744  1993  1994   un
  2745  1993  1999   un
  2746  1995  1996   un
  2747  1997  1998   un
  2748  1997  2002   un
  2749  1999  3370   un
  2750  1999  3371   un
  2751  2000  3500   un
  2752  2000  3510   un
  2753  2001  3500   un
  2754  2001  3501   un
  2755  2002  3370   un
  2756  2002  3443   un
  2757  2003  2604   un
  2758  2003  2605   un
  2759  2004  2771   un
  2760  2004  2772   un
  2761  2005  2604   un
  2762  2005  2662   un
  2763  2006  2771   un
  2764  2006  2802   un
  2765  2007  2017   un
  2766  2008  2011   un
  2767  2009  2011   un
  2768  2011  2036   un
  2769  2012  2017   un
  2770  2013  2016   un
  2771  2014  2016   un
  2772  2016  2038   un
  2773  2017  2018   un
  2774  2017  2023   un
  2775  2017  2031   un
  2776  2017  2032   un
  2777  2017  2036   un
  2778  2017  2038   un
  2779  2018  2022   un
  2780  2019  2020   un
  2781  2019  2022   un
  2782  2019  2034   un
  2783  2020  2021   un
  2784  2020  2042   un
  2785  2022  2033   un
  2786  2023  2027   un
  2787  2024  2025   un
  2788  2024  2027   un
  2789  2024  2029   un
  2790  2025  2026   un
  2791  2025  2043   un
  2792  2027  2028   un
  2793  2029  2030   un
  2794  2029  2041   un
  2795  2034  2035   un
  2796  2034  2040   un
  2797  2040  2894   un
  2798  2040  2895   un
  2799  2041  2839   un
  2800  2041  2840   un
  2801  2042  2894   un
  2802  2042  2906   un
  2803  2043  2839   un
  2804  2043  2843   un
  2805  2044  2054   un
  2806  2045  2048   un
  2807  2046  2048   un
  2808  2048  2073   un
  2809  2049  2054   un
  2810  2050  2053   un
  2811  2051  2053   un
  2812  2053  2075   un
  2813  2054  2055   un
  2814  2054  2060   un
  2815  2054  2068   un
  2816  2054  2069   un
  2817  2054  2073   un
  2818  2054  2075   un
  2819  2055  2059   un
  2820  2056  2057   un
  2821  2056  2059   un
  2822  2056  2071   un
  2823  2057  2058   un
  2824  2057  2079   un
  2825  2059  2070   un
  2826  2060  2064   un
  2827  2061  2062   un
  2828  2061  2064   un
  2829  2061  2066   un
  2830  2062  2063   un
  2831  2062  2080   un
  2832  2064  2065   un
  2833  2066  2067   un
  2834  2066  2078   un
  2835  2071  2072   un
  2836  2071  2077   un
  2837  2077  2965   un
  2838  2077  2966   un
  2839  2078  2898   un
  2840  2078  2899   un
  2841  2079  2965   un
  2842  2079  2973   un
  2843  2080  2898   un
  2844  2080  2909   un
  2845  2081  2082   un
  2846  2081  2085   un
  2847  2081  2087   un
  2848  2081  2090   un
  2849  2081  2143   un
  2850  2081  2146   un
  2851  2081  2147   un
  2852  2081  2150   un
  2853  2082  2086   un
  2854  2083  2086   un
  2855  2085  2102   un
  2856  2085  2123   un
  2857  2086  2163   un
  2858  2087  2091   un
  2859  2088  2091   un
  2860  2090  2092   un
  2861  2090  2112   un
  2862  2091  2165   un
  2863  2092  2093   un
  2864  2092  2096   un
  2865  2092  2098   un
  2866  2092  2142   un
  2867  2092  2150   un
  2868  2092  2159   un
  2869  2092  2163   un
  2870  2093  2097   un
  2871  2094  2097   un
  2872  2096  2123   un
  2873  2096  2134   un
  2874  2097  2151   un
  2875  2098  2101   un
  2876  2099  2101   un
  2877  2101  2157   un
  2878  2102  2103   un
  2879  2102  2106   un
  2880  2102  2108   un
  2881  2102  2138   un
  2882  2102  2146   un
  2883  2102  2165   un
  2884  2102  2167   un
  2885  2103  2107   un
  2886  2104  2107   un
  2887  2106  2112   un
  2888  2106  2134   un
  2889  2107  2155   un
  2890  2108  2111   un
  2891  2109  2111   un
  2892  2111  2153   un
  2893  2112  2113   un
  2894  2112  2118   un
  2895  2112  2142   un
  2896  2112  2146   un
  2897  2112  2151   un
  2898  2112  2153   un
  2899  2113  2117   un
  2900  2114  2115   un
  2901  2114  2117   un
  2902  2114  2148   un
  2903  2115  2116   un
  2904  2115  2180   un
  2905  2117  2147   un
  2906  2118  2122   un
  2907  2119  2120   un
  2908  2119  2122   un
  2909  2119  2136   un
  2910  2120  2121   un
  2911  2120  2181   un
  2912  2122  2135   un
  2913  2123  2124   un
  2914  2123  2129   un
  2915  2123  2138   un
  2916  2123  2150   un
  2917  2123  2155   un
  2918  2123  2157   un
  2919  2124  2128   un
  2920  2125  2126   un
  2921  2125  2128   un
  2922  2125  2140   un
  2923  2126  2127   un
  2924  2126  2182   un
  2925  2128  2139   un
  2926  2129  2133   un
  2927  2130  2131   un
  2928  2130  2133   un
  2929  2130  2144   un
  2930  2131  2132   un
  2931  2131  2179   un
  2932  2133  2143   un
  2933  2134  2135   un
  2934  2134  2138   un
  2935  2134  2139   un
  2936  2134  2142   un
  2937  2134  2171   un
  2938  2134  2173   un
  2939  2136  2137   un
  2940  2136  2178   un
  2941  2140  2141   un
  2942  2140  2175   un
  2943  2144  2145   un
  2944  2144  2176   un
  2945  2148  2149   un
  2946  2148  2177   un
  2947  2159  2162   un
  2948  2160  2162   un
  2949  2162  2173   un
  2950  2167  2170   un
  2951  2168  2170   un
  2952  2170  2171   un
  2953  2175  2835   un
  2954  2175  2836   un
  2955  2176  2889   un
  2956  2176  2890   un
  2957  2177  3066   un
  2958  2177  3067   un
  2959  2178  3011   un
  2960  2178  3012   un
  2961  2179  2889   un
  2962  2179  2903   un
  2963  2180  3066   un
  2964  2180  3078   un
  2965  2181  3011   un
  2966  2181  3015   un
  2967  2182  2835   un
  2968  2182  2846   un
  2969  2183  2184   un
  2970  2183  2187   un
  2971  2183  2189   un
  2972  2183  2192   un
  2973  2183  2245   un
  2974  2183  2248   un
  2975  2183  2249   un
  2976  2183  2252   un
  2977  2184  2188   un
  2978  2185  2188   un
  2979  2187  2204   un
  2980  2187  2225   un
  2981  2188  2265   un
  2982  2189  2193   un
  2983  2190  2193   un
  2984  2192  2194   un
  2985  2192  2214   un
  2986  2193  2267   un
  2987  2194  2195   un
  2988  2194  2198   un
  2989  2194  2200   un
  2990  2194  2244   un
  2991  2194  2252   un
  2992  2194  2261   un
  2993  2194  2265   un
  2994  2195  2199   un
  2995  2196  2199   un
  2996  2198  2225   un
  2997  2198  2236   un
  2998  2199  2253   un
  2999  2200  2203   un
  3000  2201  2203   un
  3001  2203  2259   un
  3002  2204  2205   un
  3003  2204  2208   un
  3004  2204  2210   un
  3005  2204  2240   un
  3006  2204  2248   un
  3007  2204  2267   un
  3008  2204  2269   un
  3009  2205  2209   un
  3010  2206  2209   un
  3011  2208  2214   un
  3012  2208  2236   un
  3013  2209  2257   un
  3014  2210  2213   un
  3015  2211  2213   un
  3016  2213  2255   un
  3017  2214  2215   un
  3018  2214  2220   un
  3019  2214  2244   un
  3020  2214  2248   un
  3021  2214  2253   un
  3022  2214  2255   un
  3023  2215  2219   un
  3024  2216  2217   un
  3025  2216  2219   un
  3026  2216  2250   un
  3027  2217  2218   un
  3028  2217  2282   un
  3029  2219  2249   un
  3030  2220  2224   un
  3031  2221  2222   un
  3032  2221  2224   un
  3033  2221  2238   un
  3034  2222  2223   un
  3035  2222  2283   un
  3036  2224  2237   un
  3037  2225  2226   un
  3038  2225  2231   un
  3039  2225  2240   un
  3040  2225  2252   un
  3041  2225  2257   un
  3042  2225  2259   un
  3043  2226  2230   un
  3044  2227  2228   un
  3045  2227  2230   un
  3046  2227  2242   un
  3047  2228  2229   un
  3048  2228  2284   un
  3049  2230  2241   un
  3050  2231  2235   un
  3051  2232  2233   un
  3052  2232  2235   un
  3053  2232  2246   un
  3054  2233  2234   un
  3055  2233  2281   un
  3056  2235  2245   un
  3057  2236  2237   un
  3058  2236  2240   un
  3059  2236  2241   un
  3060  2236  2244   un
  3061  2236  2273   un
  3062  2236  2275   un
  3063  2238  2239   un
  3064  2238  2280   un
  3065  2242  2243   un
  3066  2242  2277   un
  3067  2246  2247   un
  3068  2246  2278   un
  3069  2250  2251   un
  3070  2250  2279   un
  3071  2261  2264   un
  3072  2262  2264   un
  3073  2264  2275   un
  3074  2269  2272   un
  3075  2270  2272   un
  3076  2272  2273   un
  3077  2277  2885   un
  3078  2277  2886   un
  3079  2278  2960   un
  3080  2278  2961   un
  3081  2279  3137   un
  3082  2279  3138   un
  3083  2280  3070   un
  3084  2280  3071   un
  3085  2281  2960   un
  3086  2281  2970   un
  3087  2282  3137   un
  3088  2282  3145   un
  3089  2283  3070   un
  3090  2283  3081   un
  3091  2284  2885   un
  3092  2284  2912   un
  3093  2285  2286   un
  3094  2285  2289   un
  3095  2285  2291   un
  3096  2285  2322   un
  3097  2285  2325   un
  3098  2286  2290   un
  3099  2287  2290   un
  3100  2289  2301   un
  3101  2289  2306   un
  3102  2290  2334   un
  3103  2291  2294   un
  3104  2292  2294   un
  3105  2294  2336   un
  3106  2295  2296   un
  3107  2295  2297   un
  3108  2295  2325   un
  3109  2295  2330   un
  3110  2295  2334   un
  3111  2296  2306   un
  3112  2296  2317   un
  3113  2297  2300   un
  3114  2298  2300   un
  3115  2300  2328   un
  3116  2301  2302   un
  3117  2301  2318   un
  3118  2301  2336   un
  3119  2301  2338   un
  3120  2302  2305   un
  3121  2303  2305   un
  3122  2305  2326   un
  3123  2306  2307   un
  3124  2306  2312   un
  3125  2306  2318   un
  3126  2306  2325   un
  3127  2306  2326   un
  3128  2306  2328   un
  3129  2307  2311   un
  3130  2308  2309   un
  3131  2308  2311   un
  3132  2308  2320   un
  3133  2309  2310   un
  3134  2309  2349   un
  3135  2311  2319   un
  3136  2312  2316   un
  3137  2313  2314   un
  3138  2313  2316   un
  3139  2313  2323   un
  3140  2314  2315   un
  3141  2314  2348   un
  3142  2316  2322   un
  3143  2317  2318   un
  3144  2317  2319   un
  3145  2317  2342   un
  3146  2317  2344   un
  3147  2320  2321   un
  3148  2320  2346   un
  3149  2323  2324   un
  3150  2323  2347   un
  3151  2330  2333   un
  3152  2331  2333   un
  3153  2333  2344   un
  3154  2338  2341   un
  3155  2339  2341   un
  3156  2341  2342   un
  3157  2346  3007   un
  3158  2346  3008   un
  3159  2347  3061   un
  3160  2347  3062   un
  3161  2348  3061   un
  3162  2348  3075   un
  3163  2349  3007   un
  3164  2349  3018   un
  3165  2350  2351   un
  3166  2350  2354   un
  3167  2350  2356   un
  3168  2350  2387   un
  3169  2350  2390   un
  3170  2351  2355   un
  3171  2352  2355   un
  3172  2354  2366   un
  3173  2354  2371   un
  3174  2355  2399   un
  3175  2356  2359   un
  3176  2357  2359   un
  3177  2359  2401   un
  3178  2360  2361   un
  3179  2360  2362   un
  3180  2360  2390   un
  3181  2360  2395   un
  3182  2360  2399   un
  3183  2361  2371   un
  3184  2361  2382   un
  3185  2362  2365   un
  3186  2363  2365   un
  3187  2365  2393   un
  3188  2366  2367   un
  3189  2366  2383   un
  3190  2366  2401   un
  3191  2366  2403   un
  3192  2367  2370   un
  3193  2368  2370   un
  3194  2370  2391   un
  3195  2371  2372   un
  3196  2371  2377   un
  3197  2371  2383   un
  3198  2371  2390   un
  3199  2371  2391   un
  3200  2371  2393   un
  3201  2372  2376   un
  3202  2373  2374   un
  3203  2373  2376   un
  3204  2373  2385   un
  3205  2374  2375   un
  3206  2374  2414   un
  3207  2376  2384   un
  3208  2377  2381   un
  3209  2378  2379   un
  3210  2378  2381   un
  3211  2378  2388   un
  3212  2379  2380   un
  3213  2379  2413   un
  3214  2381  2387   un
  3215  2382  2383   un
  3216  2382  2384   un
  3217  2382  2407   un
  3218  2382  2409   un
  3219  2385  2386   un
  3220  2385  2411   un
  3221  2388  2389   un
  3222  2388  2412   un
  3223  2395  2398   un
  3224  2396  2398   un
  3225  2398  2409   un
  3226  2403  2406   un
  3227  2404  2406   un
  3228  2406  2407   un
  3229  2411  3057   un
  3230  2411  3058   un
  3231  2412  3132   un
  3232  2412  3133   un
  3233  2413  3132   un
  3234  2413  3142   un
  3235  2414  3057   un
  3236  2414  3084   un
  3237  2415  2425   un
  3238  2416  2419   un
  3239  2417  2419   un
  3240  2419  2444   un
  3241  2420  2425   un
  3242  2421  2424   un
  3243  2422  2424   un
  3244  2424  2446   un
  3245  2425  2426   un
  3246  2425  2431   un
  3247  2425  2439   un
  3248  2425  2440   un
  3249  2425  2444   un
  3250  2425  2446   un
  3251  2426  2430   un
  3252  2427  2428   un
  3253  2427  2430   un
  3254  2427  2442   un
  3255  2428  2429   un
  3256  2428  2450   un
  3257  2430  2441   un
  3258  2431  2435   un
  3259  2432  2433   un
  3260  2432  2435   un
  3261  2432  2437   un
  3262  2433  2434   un
  3263  2433  2451   un
  3264  2435  2436   un
  3265  2437  2438   un
  3266  2437  2449   un
  3267  2442  2443   un
  3268  2442  2448   un
  3269  2448  3238   un
  3270  2448  3239   un
  3271  2449  3183   un
  3272  2449  3184   un
  3273  2450  3238   un
  3274  2450  3250   un
  3275  2451  3183   un
  3276  2451  3187   un
  3277  2452  2462   un
  3278  2453  2456   un
  3279  2454  2456   un
  3280  2456  2481   un
  3281  2457  2462   un
  3282  2458  2461   un
  3283  2459  2461   un
  3284  2461  2483   un
  3285  2462  2463   un
  3286  2462  2468   un
  3287  2462  2476   un
  3288  2462  2477   un
  3289  2462  2481   un
  3290  2462  2483   un
  3291  2463  2467   un
  3292  2464  2465   un
  3293  2464  2467   un
  3294  2464  2479   un
  3295  2465  2466   un
  3296  2465  2487   un
  3297  2467  2478   un
  3298  2468  2472   un
  3299  2469  2470   un
  3300  2469  2472   un
  3301  2469  2474   un
  3302  2470  2471   un
  3303  2470  2488   un
  3304  2472  2473   un
  3305  2474  2475   un
  3306  2474  2486   un
  3307  2479  2480   un
  3308  2479  2485   un
  3309  2485  3309   un
  3310  2485  3310   un
  3311  2486  3242   un
  3312  2486  3243   un
  3313  2487  3309   un
  3314  2487  3317   un
  3315  2488  3242   un
  3316  2488  3253   un
  3317  2489  2490   un
  3318  2489  2493   un
  3319  2489  2495   un
  3320  2489  2498   un
  3321  2489  2551   un
  3322  2489  2554   un
  3323  2489  2555   un
  3324  2489  2558   un
  3325  2490  2494   un
  3326  2491  2494   un
  3327  2493  2510   un
  3328  2493  2531   un
  3329  2494  2571   un
  3330  2495  2499   un
  3331  2496  2499   un
  3332  2498  2500   un
  3333  2498  2520   un
  3334  2499  2573   un
  3335  2500  2501   un
  3336  2500  2504   un
  3337  2500  2506   un
  3338  2500  2550   un
  3339  2500  2558   un
  3340  2500  2567   un
  3341  2500  2571   un
  3342  2501  2505   un
  3343  2502  2505   un
  3344  2504  2531   un
  3345  2504  2542   un
  3346  2505  2559   un
  3347  2506  2509   un
  3348  2507  2509   un
  3349  2509  2565   un
  3350  2510  2511   un
  3351  2510  2514   un
  3352  2510  2516   un
  3353  2510  2546   un
  3354  2510  2554   un
  3355  2510  2573   un
  3356  2510  2575   un
  3357  2511  2515   un
  3358  2512  2515   un
  3359  2514  2520   un
  3360  2514  2542   un
  3361  2515  2563   un
  3362  2516  2519   un
  3363  2517  2519   un
  3364  2519  2561   un
  3365  2520  2521   un
  3366  2520  2526   un
  3367  2520  2550   un
  3368  2520  2554   un
  3369  2520  2559   un
  3370  2520  2561   un
  3371  2521  2525   un
  3372  2522  2523   un
  3373  2522  2525   un
  3374  2522  2556   un
  3375  2523  2524   un
  3376  2523  2588   un
  3377  2525  2555   un
  3378  2526  2530   un
  3379  2527  2528   un
  3380  2527  2530   un
  3381  2527  2544   un
  3382  2528  2529   un
  3383  2528  2589   un
  3384  2530  2543   un
  3385  2531  2532   un
  3386  2531  2537   un
  3387  2531  2546   un
  3388  2531  2558   un
  3389  2531  2563   un
  3390  2531  2565   un
  3391  2532  2536   un
  3392  2533  2534   un
  3393  2533  2536   un
  3394  2533  2548   un
  3395  2534  2535   un
  3396  2534  2590   un
  3397  2536  2547   un
  3398  2537  2541   un
  3399  2538  2539   un
  3400  2538  2541   un
  3401  2538  2552   un
  3402  2539  2540   un
  3403  2539  2587   un
  3404  2541  2551   un
  3405  2542  2543   un
  3406  2542  2546   un
  3407  2542  2547   un
  3408  2542  2550   un
  3409  2542  2579   un
  3410  2542  2581   un
  3411  2544  2545   un
  3412  2544  2586   un
  3413  2548  2549   un
  3414  2548  2583   un
  3415  2552  2553   un
  3416  2552  2584   un
  3417  2556  2557   un
  3418  2556  2585   un
  3419  2567  2570   un
  3420  2568  2570   un
  3421  2570  2581   un
  3422  2575  2578   un
  3423  2576  2578   un
  3424  2578  2579   un
  3425  2583  3179   un
  3426  2583  3180   un
  3427  2584  3233   un
  3428  2584  3234   un
  3429  2585  3410   un
  3430  2585  3411   un
  3431  2586  3355   un
  3432  2586  3356   un
  3433  2587  3233   un
  3434  2587  3247   un
  3435  2588  3410   un
  3436  2588  3422   un
  3437  2589  3355   un
  3438  2589  3359   un
  3439  2590  3179   un
  3440  2590  3190   un
  3441  2591  2592   un
  3442  2591  2595   un
  3443  2591  2597   un
  3444  2591  2600   un
  3445  2591  2653   un
  3446  2591  2656   un
  3447  2591  2657   un
  3448  2591  2660   un
  3449  2592  2596   un
  3450  2593  2596   un
  3451  2595  2612   un
  3452  2595  2633   un
  3453  2596  2673   un
  3454  2597  2601   un
  3455  2598  2601   un
  3456  2600  2602   un
  3457  2600  2622   un
  3458  2601  2675   un
  3459  2602  2603   un
  3460  2602  2606   un
  3461  2602  2608   un
  3462  2602  2652   un
  3463  2602  2660   un
  3464  2602  2669   un
  3465  2602  2673   un
  3466  2603  2607   un
  3467  2604  2607   un
  3468  2606  2633   un
  3469  2606  2644   un
  3470  2607  2661   un
  3471  2608  2611   un
  3472  2609  2611   un
  3473  2611  2667   un
  3474  2612  2613   un
  3475  2612  2616   un
  3476  2612  2618   un
  3477  2612  2648   un
  3478  2612  2656   un
  3479  2612  2675   un
  3480  2612  2677   un
  3481  2613  2617   un
  3482  2614  2617   un
  3483  2616  2622   un
  3484  2616  2644   un
  3485  2617  2665   un
  3486  2618  2621   un
  3487  2619  2621   un
  3488  2621  2663   un
  3489  2622  2623   un
  3490  2622  2628   un
  3491  2622  2652   un
  3492  2622  2656   un
  3493  2622  2661   un
  3494  2622  2663   un
  3495  2623  2627   un
  3496  2624  2625   un
  3497  2624  2627   un
  3498  2624  2658   un
  3499  2625  2626   un
  3500  2625  2690   un
  3501  2627  2657   un
  3502  2628  2632   un
  3503  2629  2630   un
  3504  2629  2632   un
  3505  2629  2646   un
  3506  2630  2631   un
  3507  2630  2691   un
  3508  2632  2645   un
  3509  2633  2634   un
  3510  2633  2639   un
  3511  2633  2648   un
  3512  2633  2660   un
  3513  2633  2665   un
  3514  2633  2667   un
  3515  2634  2638   un
  3516  2635  2636   un
  3517  2635  2638   un
  3518  2635  2650   un
  3519  2636  2637   un
  3520  2636  2692   un
  3521  2638  2649   un
  3522  2639  2643   un
  3523  2640  2641   un
  3524  2640  2643   un
  3525  2640  2654   un
  3526  2641  2642   un
  3527  2641  2689   un
  3528  2643  2653   un
  3529  2644  2645   un
  3530  2644  2648   un
  3531  2644  2649   un
  3532  2644  2652   un
  3533  2644  2681   un
  3534  2644  2683   un
  3535  2646  2647   un
  3536  2646  2688   un
  3537  2650  2651   un
  3538  2650  2685   un
  3539  2654  2655   un
  3540  2654  2686   un
  3541  2658  2659   un
  3542  2658  2687   un
  3543  2669  2672   un
  3544  2670  2672   un
  3545  2672  2683   un
  3546  2677  2680   un
  3547  2678  2680   un
  3548  2680  2681   un
  3549  2685  3229   un
  3550  2685  3230   un
  3551  2686  3304   un
  3552  2686  3305   un
  3553  2687  3481   un
  3554  2687  3482   un
  3555  2688  3414   un
  3556  2688  3415   un
  3557  2689  3304   un
  3558  2689  3314   un
  3559  2690  3481   un
  3560  2690  3489   un
  3561  2691  3414   un
  3562  2691  3425   un
  3563  2692  3229   un
  3564  2692  3256   un
  3565  2693  2694   un
  3566  2693  2697   un
  3567  2693  2699   un
  3568  2693  2730   un
  3569  2693  2733   un
  3570  2694  2698   un
  3571  2695  2698   un
  3572  2697  2709   un
  3573  2697  2714   un
  3574  2698  2742   un
  3575  2699  2702   un
  3576  2700  2702   un
  3577  2702  2744   un
  3578  2703  2704   un
  3579  2703  2705   un
  3580  2703  2733   un
  3581  2703  2738   un
  3582  2703  2742   un
  3583  2704  2714   un
  3584  2704  2725   un
  3585  2705  2708   un
  3586  2706  2708   un
  3587  2708  2736   un
  3588  2709  2710   un
  3589  2709  2726   un
  3590  2709  2744   un
  3591  2709  2746   un
  3592  2710  2713   un
  3593  2711  2713   un
  3594  2713  2734   un
  3595  2714  2715   un
  3596  2714  2720   un
  3597  2714  2726   un
  3598  2714  2733   un
  3599  2714  2734   un
  3600  2714  2736   un
  3601  2715  2719   un
  3602  2716  2717   un
  3603  2716  2719   un
  3604  2716  2728   un
  3605  2717  2718   un
  3606  2717  2757   un
  3607  2719  2727   un
  3608  2720  2724   un
  3609  2721  2722   un
  3610  2721  2724   un
  3611  2721  2731   un
  3612  2722  2723   un
  3613  2722  2756   un
  3614  2724  2730   un
  3615  2725  2726   un
  3616  2725  2727   un
  3617  2725  2750   un
  3618  2725  2752   un
  3619  2728  2729   un
  3620  2728  2754   un
  3621  2731  2732   un
  3622  2731  2755   un
  3623  2738  2741   un
  3624  2739  2741   un
  3625  2741  2752   un
  3626  2746  2749   un
  3627  2747  2749   un
  3628  2749  2750   un
  3629  2754  3351   un
  3630  2754  3352   un
  3631  2755  3405   un
  3632  2755  3406   un
  3633  2756  3405   un
  3634  2756  3419   un
  3635  2757  3351   un
  3636  2757  3362   un
  3637  2758  2759   un
  3638  2758  2762   un
  3639  2758  2764   un
  3640  2758  2795   un
  3641  2758  2798   un
  3642  2759  2763   un
  3643  2760  2763   un
  3644  2762  2774   un
  3645  2762  2779   un
  3646  2763  2807   un
  3647  2764  2767   un
  3648  2765  2767   un
  3649  2767  2809   un
  3650  2768  2769   un
  3651  2768  2770   un
  3652  2768  2798   un
  3653  2768  2803   un
  3654  2768  2807   un
  3655  2769  2779   un
  3656  2769  2790   un
  3657  2770  2773   un
  3658  2771  2773   un
  3659  2773  2801   un
  3660  2774  2775   un
  3661  2774  2791   un
  3662  2774  2809   un
  3663  2774  2811   un
  3664  2775  2778   un
  3665  2776  2778   un
  3666  2778  2799   un
  3667  2779  2780   un
  3668  2779  2785   un
  3669  2779  2791   un
  3670  2779  2798   un
  3671  2779  2799   un
  3672  2779  2801   un
  3673  2780  2784   un
  3674  2781  2782   un
  3675  2781  2784   un
  3676  2781  2793   un
  3677  2782  2783   un
  3678  2782  2822   un
  3679  2784  2792   un
  3680  2785  2789   un
  3681  2786  2787   un
  3682  2786  2789   un
  3683  2786  2796   un
  3684  2787  2788   un
  3685  2787  2821   un
  3686  2789  2795   un
  3687  2790  2791   un
  3688  2790  2792   un
  3689  2790  2815   un
  3690  2790  2817   un
  3691  2793  2794   un
  3692  2793  2819   un
  3693  2796  2797   un
  3694  2796  2820   un
  3695  2803  2806   un
  3696  2804  2806   un
  3697  2806  2817   un
  3698  2811  2814   un
  3699  2812  2814   un
  3700  2814  2815   un
  3701  2819  3401   un
  3702  2819  3402   un
  3703  2820  3476   un
  3704  2820  3477   un
  3705  2821  3476   un
  3706  2821  3486   un
  3707  2822  3401   un
  3708  2822  3428   un
  3709  2823  2824   un
  3710  2823  2827   un
  3711  2823  2829   un
  3712  2823  2832   un
  3713  2823  2842   un
  3714  2823  2844   un
  3715  2823  2845   un
  3716  2823  2847   un
  3717  2824  2828   un
  3718  2825  2828   un
  3719  2828  2848   un
  3720  2829  2833   un
  3721  2830  2833   un
  3722  2833  2850   un
  3723  2834  2837   un
  3724  2835  2837   un
  3725  2837  2845   un
  3726  2838  2841   un
  3727  2839  2841   un
  3728  2841  2842   un
  3729  2852  2853   un
  3730  2852  2856   un
  3731  2852  2858   un
  3732  2852  2861   un
  3733  2852  2908   un
  3734  2852  2910   un
  3735  2852  2911   un
  3736  2852  2913   un
  3737  2853  2857   un
  3738  2854  2857   un
  3739  2856  2873   un
  3740  2856  2892   un
  3741  2857  2926   un
  3742  2858  2862   un
  3743  2859  2862   un
  3744  2861  2863   un
  3745  2861  2883   un
  3746  2862  2928   un
  3747  2863  2864   un
  3748  2863  2867   un
  3749  2863  2869   un
  3750  2863  2907   un
  3751  2863  2913   un
  3752  2863  2922   un
  3753  2863  2926   un
  3754  2864  2868   un
  3755  2865  2868   un
  3756  2867  2892   un
  3757  2867  2901   un
  3758  2868  2914   un
  3759  2869  2872   un
  3760  2870  2872   un
  3761  2872  2920   un
  3762  2873  2874   un
  3763  2873  2877   un
  3764  2873  2879   un
  3765  2873  2904   un
  3766  2873  2910   un
  3767  2873  2928   un
  3768  2873  2930   un
  3769  2874  2878   un
  3770  2875  2878   un
  3771  2877  2883   un
  3772  2877  2901   un
  3773  2878  2918   un
  3774  2879  2882   un
  3775  2880  2882   un
  3776  2882  2916   un
  3777  2883  2884   un
  3778  2883  2888   un
  3779  2883  2907   un
  3780  2883  2910   un
  3781  2883  2914   un
  3782  2883  2916   un
  3783  2884  2887   un
  3784  2885  2887   un
  3785  2887  2911   un
  3786  2888  2891   un
  3787  2889  2891   un
  3788  2891  2902   un
  3789  2892  2893   un
  3790  2892  2897   un
  3791  2892  2904   un
  3792  2892  2913   un
  3793  2892  2918   un
  3794  2892  2920   un
  3795  2893  2896   un
  3796  2894  2896   un
  3797  2896  2905   un
  3798  2897  2900   un
  3799  2898  2900   un
  3800  2900  2908   un
  3801  2901  2902   un
  3802  2901  2904   un
  3803  2901  2905   un
  3804  2901  2907   un
  3805  2901  2934   un
  3806  2901  2936   un
  3807  2922  2925   un
  3808  2923  2925   un
  3809  2925  2936   un
  3810  2930  2933   un
  3811  2931  2933   un
  3812  2933  2934   un
  3813  2938  2939   un
  3814  2938  2942   un
  3815  2938  2944   un
  3816  2938  2974   un
  3817  2938  2983   un
  3818  2939  2943   un
  3819  2940  2943   un
  3820  2942  2963   un
  3821  2942  2968   un
  3822  2943  2975   un
  3823  2944  2947   un
  3824  2945  2947   un
  3825  2947  2981   un
  3826  2948  2949   un
  3827  2948  2952   un
  3828  2948  2954   un
  3829  2948  2971   un
  3830  2948  2987   un
  3831  2949  2953   un
  3832  2950  2953   un
  3833  2952  2958   un
  3834  2952  2968   un
  3835  2953  2979   un
  3836  2954  2957   un
  3837  2955  2957   un
  3838  2957  2977   un
  3839  2958  2959   un
  3840  2958  2974   un
  3841  2958  2975   un
  3842  2958  2977   un
  3843  2959  2962   un
  3844  2960  2962   un
  3845  2962  2969   un
  3846  2963  2964   un
  3847  2963  2971   un
  3848  2963  2979   un
  3849  2963  2981   un
  3850  2964  2967   un
  3851  2965  2967   un
  3852  2967  2972   un
  3853  2968  2969   un
  3854  2968  2971   un
  3855  2968  2972   un
  3856  2968  2974   un
  3857  2968  2991   un
  3858  2968  2993   un
  3859  2983  2986   un
  3860  2984  2986   un
  3861  2986  2993   un
  3862  2987  2990   un
  3863  2988  2990   un
  3864  2990  2991   un
  3865  2995  2996   un
  3866  2995  2999   un
  3867  2995  3001   un
  3868  2995  3004   un
  3869  2995  3014   un
  3870  2995  3016   un
  3871  2995  3017   un
  3872  2995  3019   un
  3873  2996  3000   un
  3874  2997  3000   un
  3875  3000  3020   un
  3876  3001  3005   un
  3877  3002  3005   un
  3878  3005  3022   un
  3879  3006  3009   un
  3880  3007  3009   un
  3881  3009  3017   un
  3882  3010  3013   un
  3883  3011  3013   un
  3884  3013  3014   un
  3885  3024  3025   un
  3886  3024  3028   un
  3887  3024  3030   un
  3888  3024  3033   un
  3889  3024  3080   un
  3890  3024  3082   un
  3891  3024  3083   un
  3892  3024  3085   un
  3893  3025  3029   un
  3894  3026  3029   un
  3895  3028  3045   un
  3896  3028  3064   un
  3897  3029  3098   un
  3898  3030  3034   un
  3899  3031  3034   un
  3900  3033  3035   un
  3901  3033  3055   un
  3902  3034  3100   un
  3903  3035  3036   un
  3904  3035  3039   un
  3905  3035  3041   un
  3906  3035  3079   un
  3907  3035  3085   un
  3908  3035  3094   un
  3909  3035  3098   un
  3910  3036  3040   un
  3911  3037  3040   un
  3912  3039  3064   un
  3913  3039  3073   un
  3914  3040  3086   un
  3915  3041  3044   un
  3916  3042  3044   un
  3917  3044  3092   un
  3918  3045  3046   un
  3919  3045  3049   un
  3920  3045  3051   un
  3921  3045  3076   un
  3922  3045  3082   un
  3923  3045  3100   un
  3924  3045  3102   un
  3925  3046  3050   un
  3926  3047  3050   un
  3927  3049  3055   un
  3928  3049  3073   un
  3929  3050  3090   un
  3930  3051  3054   un
  3931  3052  3054   un
  3932  3054  3088   un
  3933  3055  3056   un
  3934  3055  3060   un
  3935  3055  3079   un
  3936  3055  3082   un
  3937  3055  3086   un
  3938  3055  3088   un
  3939  3056  3059   un
  3940  3057  3059   un
  3941  3059  3083   un
  3942  3060  3063   un
  3943  3061  3063   un
  3944  3063  3074   un
  3945  3064  3065   un
  3946  3064  3069   un
  3947  3064  3076   un
  3948  3064  3085   un
  3949  3064  3090   un
  3950  3064  3092   un
  3951  3065  3068   un
  3952  3066  3068   un
  3953  3068  3077   un
  3954  3069  3072   un
  3955  3070  3072   un
  3956  3072  3080   un
  3957  3073  3074   un
  3958  3073  3076   un
  3959  3073  3077   un
  3960  3073  3079   un
  3961  3073  3106   un
  3962  3073  3108   un
  3963  3094  3097   un
  3964  3095  3097   un
  3965  3097  3108   un
  3966  3102  3105   un
  3967  3103  3105   un
  3968  3105  3106   un
  3969  3110  3111   un
  3970  3110  3114   un
  3971  3110  3116   un
  3972  3110  3146   un
  3973  3110  3155   un
  3974  3111  3115   un
  3975  3112  3115   un
  3976  3114  3135   un
  3977  3114  3140   un
  3978  3115  3147   un
  3979  3116  3119   un
  3980  3117  3119   un
  3981  3119  3153   un
  3982  3120  3121   un
  3983  3120  3124   un
  3984  3120  3126   un
  3985  3120  3143   un
  3986  3120  3159   un
  3987  3121  3125   un
  3988  3122  3125   un
  3989  3124  3130   un
  3990  3124  3140   un
  3991  3125  3151   un
  3992  3126  3129   un
  3993  3127  3129   un
  3994  3129  3149   un
  3995  3130  3131   un
  3996  3130  3146   un
  3997  3130  3147   un
  3998  3130  3149   un
  3999  3131  3134   un
  4000  3132  3134   un
  4001  3134  3141   un
  4002  3135  3136   un
  4003  3135  3143   un
  4004  3135  3151   un
  4005  3135  3153   un
  4006  3136  3139   un
  4007  3137  3139   un
  4008  3139  3144   un
  4009  3140  3141   un
  4010  3140  3143   un
  4011  3140  3144   un
  4012  3140  3146   un
  4013  3140  3163   un
  4014  3140  3165   un
  4015  3155  3158   un
  4016  3156  3158   un
  4017  3158  3165   un
  4018  3159  3162   un
  4019  3160  3162   un
  4020  3162  3163   un
  4021  3167  3168   un
  4022  3167  3171   un
  4023  3167  3173   un
  4024  3167  3176   un
  4025  3167  3186   un
  4026  3167  3188   un
  4027  3167  3189   un
  4028  3167  3191   un
  4029  3168  3172   un
  4030  3169  3172   un
  4031  3172  3192   un
  4032  3173  3177   un
  4033  3174  3177   un
  4034  3177  3194   un
  4035  3178  3181   un
  4036  3179  3181   un
  4037  3181  3189   un
  4038  3182  3185   un
  4039  3183  3185   un
  4040  3185  3186   un
  4041  3196  3197   un
  4042  3196  3200   un
  4043  3196  3202   un
  4044  3196  3205   un
  4045  3196  3252   un
  4046  3196  3254   un
  4047  3196  3255   un
  4048  3196  3257   un
  4049  3197  3201   un
  4050  3198  3201   un
  4051  3200  3217   un
  4052  3200  3236   un
  4053  3201  3270   un
  4054  3202  3206   un
  4055  3203  3206   un
  4056  3205  3207   un
  4057  3205  3227   un
  4058  3206  3272   un
  4059  3207  3208   un
  4060  3207  3211   un
  4061  3207  3213   un
  4062  3207  3251   un
  4063  3207  3257   un
  4064  3207  3266   un
  4065  3207  3270   un
  4066  3208  3212   un
  4067  3209  3212   un
  4068  3211  3236   un
  4069  3211  3245   un
  4070  3212  3258   un
  4071  3213  3216   un
  4072  3214  3216   un
  4073  3216  3264   un
  4074  3217  3218   un
  4075  3217  3221   un
  4076  3217  3223   un
  4077  3217  3248   un
  4078  3217  3254   un
  4079  3217  3272   un
  4080  3217  3274   un
  4081  3218  3222   un
  4082  3219  3222   un
  4083  3221  3227   un
  4084  3221  3245   un
  4085  3222  3262   un
  4086  3223  3226   un
  4087  3224  3226   un
  4088  3226  3260   un
  4089  3227  3228   un
  4090  3227  3232   un
  4091  3227  3251   un
  4092  3227  3254   un
  4093  3227  3258   un
  4094  3227  3260   un
  4095  3228  3231   un
  4096  3229  3231   un
  4097  3231  3255   un
  4098  3232  3235   un
  4099  3233  3235   un
  4100  3235  3246   un
  4101  3236  3237   un
  4102  3236  3241   un
  4103  3236  3248   un
  4104  3236  3257   un
  4105  3236  3262   un
  4106  3236  3264   un
  4107  3237  3240   un
  4108  3238  3240   un
  4109  3240  3249   un
  4110  3241  3244   un
  4111  3242  3244   un
  4112  3244  3252   un
  4113  3245  3246   un
  4114  3245  3248   un
  4115  3245  3249   un
  4116  3245  3251   un
  4117  3245  3278   un
  4118  3245  3280   un
  4119  3266  3269   un
  4120  3267  3269   un
  4121  3269  3280   un
  4122  3274  3277   un
  4123  3275  3277   un
  4124  3277  3278   un
  4125  3282  3283   un
  4126  3282  3286   un
  4127  3282  3288   un
  4128  3282  3318   un
  4129  3282  3327   un
  4130  3283  3287   un
  4131  3284  3287   un
  4132  3286  3307   un
  4133  3286  3312   un
  4134  3287  3319   un
  4135  3288  3291   un
  4136  3289  3291   un
  4137  3291  3325   un
  4138  3292  3293   un
  4139  3292  3296   un
  4140  3292  3298   un
  4141  3292  3315   un
  4142  3292  3331   un
  4143  3293  3297   un
  4144  3294  3297   un
  4145  3296  3302   un
  4146  3296  3312   un
  4147  3297  3323   un
  4148  3298  3301   un
  4149  3299  3301   un
  4150  3301  3321   un
  4151  3302  3303   un
  4152  3302  3318   un
  4153  3302  3319   un
  4154  3302  3321   un
  4155  3303  3306   un
  4156  3304  3306   un
  4157  3306  3313   un
  4158  3307  3308   un
  4159  3307  3315   un
  4160  3307  3323   un
  4161  3307  3325   un
  4162  3308  3311   un
  4163  3309  3311   un
  4164  3311  3316   un
  4165  3312  3313   un
  4166  3312  3315   un
  4167  3312  3316   un
  4168  3312  3318   un
  4169  3312  3335   un
  4170  3312  3337   un
  4171  3327  3330   un
  4172  3328  3330   un
  4173  3330  3337   un
  4174  3331  3334   un
  4175  3332  3334   un
  4176  3334  3335   un
  4177  3339  3340   un
  4178  3339  3343   un
  4179  3339  3345   un
  4180  3339  3348   un
  4181  3339  3358   un
  4182  3339  3360   un
  4183  3339  3361   un
  4184  3339  3363   un
  4185  3340  3344   un
  4186  3341  3344   un
  4187  3344  3364   un
  4188  3345  3349   un
  4189  3346  3349   un
  4190  3349  3366   un
  4191  3350  3353   un
  4192  3351  3353   un
  4193  3353  3361   un
  4194  3354  3357   un
  4195  3355  3357   un
  4196  3357  3358   un
  4197  3368  3369   un
  4198  3368  3372   un
  4199  3368  3374   un
  4200  3368  3377   un
  4201  3368  3424   un
  4202  3368  3426   un
  4203  3368  3427   un
  4204  3368  3429   un
  4205  3369  3373   un
  4206  3370  3373   un
  4207  3372  3389   un
  4208  3372  3408   un
  4209  3373  3442   un
  4210  3374  3378   un
  4211  3375  3378   un
  4212  3377  3379   un
  4213  3377  3399   un
  4214  3378  3444   un
  4215  3379  3380   un
  4216  3379  3383   un
  4217  3379  3385   un
  4218  3379  3423   un
  4219  3379  3429   un
  4220  3379  3438   un
  4221  3379  3442   un
  4222  3380  3384   un
  4223  3381  3384   un
  4224  3383  3408   un
  4225  3383  3417   un
  4226  3384  3430   un
  4227  3385  3388   un
  4228  3386  3388   un
  4229  3388  3436   un
  4230  3389  3390   un
  4231  3389  3393   un
  4232  3389  3395   un
  4233  3389  3420   un
  4234  3389  3426   un
  4235  3389  3444   un
  4236  3389  3446   un
  4237  3390  3394   un
  4238  3391  3394   un
  4239  3393  3399   un
  4240  3393  3417   un
  4241  3394  3434   un
  4242  3395  3398   un
  4243  3396  3398   un
  4244  3398  3432   un
  4245  3399  3400   un
  4246  3399  3404   un
  4247  3399  3423   un
  4248  3399  3426   un
  4249  3399  3430   un
  4250  3399  3432   un
  4251  3400  3403   un
  4252  3401  3403   un
  4253  3403  3427   un
  4254  3404  3407   un
  4255  3405  3407   un
  4256  3407  3418   un
  4257  3408  3409   un
  4258  3408  3413   un
  4259  3408  3420   un
  4260  3408  3429   un
  4261  3408  3434   un
  4262  3408  3436   un
  4263  3409  3412   un
  4264  3410  3412   un
  4265  3412  3421   un
  4266  3413  3416   un
  4267  3414  3416   un
  4268  3416  3424   un
  4269  3417  3418   un
  4270  3417  3420   un
  4271  3417  3421   un
  4272  3417  3423   un
  4273  3417  3450   un
  4274  3417  3452   un
  4275  3438  3441   un
  4276  3439  3441   un
  4277  3441  3452   un
  4278  3446  3449   un
  4279  3447  3449   un
  4280  3449  3450   un
  4281  3454  3455   un
  4282  3454  3458   un
  4283  3454  3460   un
  4284  3454  3490   un
  4285  3454  3499   un
  4286  3455  3459   un
  4287  3456  3459   un
  4288  3458  3479   un
  4289  3458  3484   un
  4290  3459  3491   un
  4291  3460  3463   un
  4292  3461  3463   un
  4293  3463  3497   un
  4294  3464  3465   un
  4295  3464  3468   un
  4296  3464  3470   un
  4297  3464  3487   un
  4298  3464  3503   un
  4299  3465  3469   un
  4300  3466  3469   un
  4301  3468  3474   un
  4302  3468  3484   un
  4303  3469  3495   un
  4304  3470  3473   un
  4305  3471  3473   un
  4306  3473  3493   un
  4307  3474  3475   un
  4308  3474  3490   un
  4309  3474  3491   un
  4310  3474  3493   un
  4311  3475  3478   un
  4312  3476  3478   un
  4313  3478  3485   un
  4314  3479  3480   un
  4315  3479  3487   un
  4316  3479  3495   un
  4317  3479  3497   un
  4318  3480  3483   un
  4319  3481  3483   un
  4320  3483  3488   un
  4321  3484  3485   un
  4322  3484  3487   un
  4323  3484  3488   un
  4324  3484  3490   un
  4325  3484  3507   un
  4326  3484  3509   un
  4327  3499  3502   un
  4328  3500  3502   un
  4329  3502  3509   un
  4330  3503  3506   un
  4331  3504  3506   un
  4332  3506  3507   un
@<TRIPOS>CRYSIN
   20.7465   20.7465   20.7465    1.5708    1.5708    1.5708
